! A simple 3D steady-state structured computing of 'depth' and 'height'
! Test case authors: Peter Råback
! Test case created: 27.9.2012

Header
  CHECK KEYWORDS Warn
  Mesh DB "." "cube"
  Include Path ""
  Results Directory ""
End

Simulation
  Max Output Level = 5
  Coordinate System = "Cartesian"
  Coordinate Mapping(3) = 1 2 3
  Simulation Type = "Steady State"
  Steady State Max Iterations = 1
  Output Intervals = 0
!  Post File = "case.ep"
End

Constants
  Gravity(4) = 0 -1 0 9.82
  Stefan Boltzmann = 5.67e-08
End

Body 1
  Name = "Body1"
  Body Force = 1
  Equation = 1
  Material = 1
End

Equation 1
  Name = "Equation1"
  Heat Equation = True
End

Solver 1
  Equation = "Heat Equation"
  Variable = "Temperature"
  Variable Dofs = 1
  Linear System Solver = "Iterative"
  Linear System Iterative Method = "BiCGStabl"
  BiCgStabl Polynomial Degree = 4
  Linear System Max Iterations = 500
  Linear System Convergence Tolerance = 1.0e-08
  Linear System Abort Not Converged = True
  Linear System Preconditioning = "none"
  Linear System Residual Output = 1
  Steady State Convergence Tolerance = 1.0e-05
  Nonlinear System Convergence Tolerance = 1.0e-05
  Nonlinear System Max Iterations = 1
  Nonlinear System Newton After Iterations = 3
  Nonlinear System Newton After Tolerance = 1.0e-02
  Nonlinear System Relaxation Factor = 1.0
End

Solver 2 
  Exec Solver = before all 
  Equation = "HeightDepth"
  Procedure = "StructuredProjectToPlane" "StructuredProjectToPlane"
  Active Coordinate = Integer 3
 
  Operator 1 = depth
  Operator 2 = height
  Operator 3 = distance
  Operator 4 = index
End 


Solver 3
!  Exec Solver = never

  Equation = "result output"
  Procedure = "ResultOutputSolve" "ResultOutputSolver"
  Output File Name = case

  Vtu Format = Logical True
  Binary Output = Logical True
  Single Precision = Logical True
End

Material 1
  Name = "Material1"
  Density = 1
  Heat Conductivity = 1
End

Body Force 1
  Name = "BodyForce1"

! Just an other way of telling that the source is one,
! This one effectively checks for the projection
  Heat Source = Variable depth, height
   Real MATC "tx(0)+tx(1)" 
End

Boundary Condition 1
  Name = "Adibatic sides"
  Target Boundaries(4) = 1 2 3 4
End

Boundary Condition 2
  Name = "Bottom"
  Target Boundaries = 5 
  Temperature = 0
End

Boundary Condition 3
  Name = "Top"
  Target Boundaries = 6 
  Temperature = 0
End

Solver 1 :: Reference Norm = Real 8.79649038297045105E-002
RUN

!End Of File
