! Change linear system namespace in middle of simulation

Header
  CHECK KEYWORDS Warn
  Mesh DB "." "angle"
  Include Path ""
  Results Directory ""
End

Simulation
  Max Output Level = 5

  Coordinate System = "Cartesian"
  Coordinate Mapping(3) = 1 2 3

  Simulation Type = "Steady State"
  Steady State Max Iterations = 1
  Output Intervals = 1

!  Post File = "case.vtu"
End

Constants
  Gravity(4) = 0 -1 0 9.82
  Stefan Boltzmann = 5.67e-08
End

Body 1
  Name = "Body"
  Body Force = 1
  Equation = 1
  Material = 1
End

Equation 1
  Name = "Equations"
  Active Solvers(1) = 1
End

Solver 1
  Exec Solver = "Always"
  Equation = "Heat Equation"
  Variable = "Temperature"
  Variable Dofs = 1

! Given real number is mapped to nearest integer
! The linear system strategy should then be given with namespace 'linsysI:'
  Linear System Namespace Number = Variable "nonlin iter"
    Real
     1 1
     2 2
     3 2 
    End 

  linsys1: Linear System Solver = "direct"
  linsys1: Linear System Direct Method = "umfpack"

  linsys2: Linear System Solver = "Iterative"
  linsys2: Linear System Iterative Method = "BiCGStab"

  Linear System Max Iterations = 1000
  Linear System Convergence Tolerance = 1.0e-08
  Linear System Abort Not Converged = True
  Linear System Preconditioning = "ILU0"
  Linear System Residual Output = 1

  Steady State Convergence Tolerance = 1.0e-05
  Stabilize = True
  Nonlinear System Convergence Tolerance = 1.0e-05
  Nonlinear System Max Iterations = 2
  Nonlinear System Newton After Iterations = 3
  Nonlinear System Newton After Tolerance = 1.0e-02
  Nonlinear System Relaxation Factor = 1.0
End

Material 1
  Name = "Material"
  Density = 1
  Heat Conductivity = 3
End

Body Force 1
  Name = "BodyForce"
  Heat Source = 1
End

Boundary Condition 1
  Name = "Constraint"
  Target Boundaries(1) = 1 
  Temperature = 0
End

Solver 1 :: Reference Norm = Real 0.25941344E-01
