Header
  Mesh DB "." "Pipe"
  Include Path ""
  Results Directory ""
End

Simulation
  Max Output Level = 5
  Coordinate System =  Cartesian
!  coordinate system = axi symmetric
  Coordinate Mapping(3) = 1 2 3
  Simulation Type = Steady
  Steady State Max Iterations = 1
  Output Intervals = 1
! Post File = "Pipe.ep"
! Output File = "Pipe.dat"
End

Constants
  Gravity(4) = 0 -1 0 9.82
  Stefan Boltzmann = 5.67e-8
End

Body 1
  Name = "Body1"
  Equation = 1
  Material = 1
End

Body 2
  Name = "Body2"
  Equation = 1
  Material = 2
End

Equation 1
  Name = "Equation1"
  Navier-Stokes = True
End

Solver 1
   Equation = "Navier-Stokes"
   Linear System Solver = Iterative
   Linear System Iterative Method = BiCGStab
   Linear System Max Iterations = 500
   Linear System Convergence Tolerance = 1.0e-8
   Linear System Preconditioning = ILU1
   Linear System Residual Output = 20
   Steady State Convergence Tolerance = 1.0e-5
   Bubbles = True
   Nonlinear System Convergence Tolerance = 1.0e-5
   Nonlinear System Max Iterations = 20
   Nonlinear System Newton After Iterations = 3
   Nonlinear System Newton After Tolerance = 1.0e-2
   Nonlinear System Relaxation Factor = 1.0
End

Material 1
  Name = "Material1"
  Density = 1
  Viscosity = 1.0e-2
End

Material 2
  Name = "Material1"
  Density = 1
  Viscosity = 1.0e-2
  Porous Media = Logical True
  Porous Resistivity(2) = Real 1.0e3 1.0e3
End

Boundary Condition 1
  Name = "Walls"
  Target Boundaries = 3

   Velocity 1 = 0
   Velocity 2 = 0
End

Boundary Condition 2
  Name = "Inlet"

  Target Boundaries = 1
   Velocity 1 = Variable Coordinate 2
     MATC "tx*(1-tx)"
  Velocity 2 = 0
End

Boundary Condition 3
  Name = "Outlet"
  Target Boundaries = 2
  Pressure = 0
  Velocity 1 = 0
End

Solver 1 :: Reference Norm = Real 0.117158
Solver 1 :: Reference Norm Tolerance = Real 1.0e-3
RUN
