! A simple testcase for testing CircuitsAndDynamics module.
! Author: Eelis Takala, Trafotek Oy
! Original date: October 2015
! eelis.takala@trafotek.fi

Check Keywords "Warn"
INCLUDE sif/1383-circuits-components.definitions
INCLUDE 1383/mesh.names

Header 1
   Mesh DB "." "1383"
End

Simulation 1
   Max Output Level = 3
   Coordinate System = Axi symmetric
   Simulation Type = Steady
   Steady State Max Iterations = 1
   Angular Frequency = 314.159265359
End

Solver 1
   Exec Solver = Before All
   Procedure = "Poisson" "PoissonSolver"
   Linear System Solver = Iterative
   Linear System Iterative Method = CG
   Linear System Max Iterations = 1000
   Linear System Convergence Tolerance = 1.0e-10
   Linear System Preconditioning = ILU0
   Linear System Abort Not Converged = True
   Linear System Residual Output = 100
   Equation = Direction
   Variable = -nooutput Alpha
End

Solver 2
   Exec Solver = Always
   Equation = Circuits
   Variable = X
   No Matrix = Logical True
   Procedure = "CircuitsAndDynamics" "CircuitsAndDynamicsHarmonic"
End

Solver 3
   Equation = "Mag"
   Variable = A[A re:1 A im:1]
   Procedure = "MagnetoDynamics2D" "MagnetoDynamics2DHarmonic"
   Linear System Symmetric = True
   NonLinear System Relaxation Factor=1
   Export Lagrange Multiplier = Logical True
   Linear System Solver = Direct
   Linear System Direct Method = UMFPACK
   Linear System Complex = Logical True
   Linear System Convergence Tolerance = 1.e-7
   Linear System Max Iterations = 3000
   Linear System Residual Output = 10
   Linear System Abort not Converged = False
   Linear System ILUT Tolerance=1e-8
   BicgStabL Polynomial Degree = 4
   Steady State Convergence Tolerance = 1e-06
End

Solver 4
   Equation = CompB
   Variable = -nooutput temp
   Exported Variable 1 = B[B re:2 B im:2]
   Target Variable="A"
   Procedure = "MagnetoDynamics2D" "bSolver"
   Discontinuous Galerkin = Logical True
   Calculate Joule Heating = Logical True
   Calculate Current Density = Logical True
   Linear System Solver = Iterative
   Linear System Iterative Method = BicgstabL
   Linear System Symmetric = True
   Linear System Max Iterations = 100
   Linear System Preconditioning = None
   Linear System Convergence Tolerance = 1e-6
End

Solver 5
   Exec Solver = Never
   Equation = "ResultOutput"
   Procedure = "ResultOutputSolve" "ResultOutputSolver"
   Output File Name = 1383-results
   Vtu format = Logical True
   Save Geometry Ids = Logical True
End

Solver 6
   Exec Solver = Always
   Equation = Circuits Output
   Procedure = "CircuitsAndDynamics" "CircuitsOutput"
End

!Solver 6
!   Exec Solver = Always
!   Equation = "sv"
!   Procedure = "SaveData" "SaveScalars"
!   Filename = 1383/dat/1383.dat
!End

Equation 1
   Active Solvers(3) = 2 3 4
End

Equation 2
   Active Solvers(4) = 1 2 3 4
End

Material 1
   Name = iron
   Electric Conductivity = 0
   Relative Permeability = 2000
End

Material 2
   Name = air
   Electric Conductivity = 0
   Relative Permeability = 1
End

Material 3
   Name = aluminium
   Relative Permeability = 1
   Electric Conductivity = 1e7
End

Body 1
   Name = Core
   Target Bodies(6) = 1 2 3 4 5 6
   Equation = 1
   Material = 1
End

Body 2
   Name = air
   Target Bodies(2) = 9 7
   Equation = 1
   Material = 2
End

Body 3
   Name = test 1
   Target Bodies = 8
   Equation = 2
   Material = 3
End

Component 1
   Name = String test inductor
   Master Bodies = Integer 3
   Coil Type = String foil winding
   Number of Turns = Real 1000
   Coil Thickness = Real 0.05
End

Component 2
   Name = String test inductor 2
   Component Type = String Resistor
End

Component 3
   Name = String test inductor 2
End

Body Force 1
   Name = "Circuit"
   testsource Re = Real 1.41421356237
   testsource Im = Real 0.0
End

Boundary Condition 1
   Target Boundaries(4) = $ center0 center1 center2 center3
   A re = Real 0
   A im = Real 0
End

Boundary Condition 2
   Target Boundaries(2) = 6 8
   Name = "Air Gap"
   Air Gap = logical True
   Air Gap Length = Real 0.0001
   Air Gap Relative Permeability = Real 1
End

Boundary Condition 3
   Target Boundaries(7) = 12 15 16 19 20 21 27
   Infinity BC = Logical True
End

Boundary Condition 4
   Target Boundaries = $ test_1_alpha0
   alpha = Real 0
End

Boundary Condition 5
   Target Boundaries = $ test_1_alpha1
   alpha = Real 1
End

Solver 3 :: Reference Norm = Real 2.29522322E-03
$fprintf( stderr, "TEST CASE 1\n");
RUN
