! Test case for internal partitioning
! Step 2) : parallel solution

Header
  CHECK KEYWORDS Warn
  Mesh DB "." "angle"
  Include Path ""
  Results Directory ""
End

Simulation
  Max Output Level = 5

  Coordinate System = "Cartesian"
  Coordinate Mapping(3) = 1 2 3

  Simulation Type = "Steady State"
  Steady State Max Iterations = 1
  Output Intervals = 1
!  Max Output Partition = Integer 10
End

Constants
  Gravity(4) = 0 -1 0 9.82
  Stefan Boltzmann = 5.67e-08
End

Body 1
  Name = "Body"
  Body Force = 1
  Equation = 1
  Material = 1
End

Equation 1
  Name = "Equations"
  Active Solvers(1) = 1
End

Solver 1
  Exec Solver = "Always"
  Equation = "Heat Equation"
  Variable = "Temperature"
  Variable Dofs = 1
  Linear System Solver = "Iterative"
  Linear System Iterative Method = "BiCGStab"
  Linear System Max Iterations = 350
  Linear System Convergence Tolerance = 1.0e-08
  Linear System Abort Not Converged = True
  Linear System Preconditioning = "ILU0"
  Linear System Residual Output = 0
  Steady State Convergence Tolerance = 1.0e-05
  Stabilize = True
  Nonlinear System Max Iterations = 1
  Optimize Bandwidth = False

  NonLinear System Consistent Norm = True
End


Solver 2
!  Exec Solver = never

  Equation = "ResultOutput"
  Procedure = "ResultOutputSolve" "ResultOutputSolver"
  Output File Name = "case" 

  Vtu format = Logical True
End



Material 1
  Name = "Material"
  Density = 1
  Heat Conductivity = 1
End

Body Force 1
  Name = "BodyForce"
  Heat Source = 1
End

Boundary Condition 1
  Name = "Constraint"
  Target Boundaries(1) = 1 
  Temperature = 0
  Partition Set = Integer 1
End

Boundary Condition 2
  Name = "Constraint"
  Target Boundaries(1) = 2 
  Temperature = 0
  Partition Set = Integer 1
End

Solver 1:: Reference Norm = 0.16443938814975653

!End Of File
