!------------------------------------------------------------------------------
!  THE DESCRIPTION OF THIS TEST:  
!
!  Solve the best approximation of the vector field U = (-y^3/3,x^3/3)
!  with respect to the energy norm (corresponding to the operator I + curl curl) 
!  by using H(curl)-conforming basis functions of degree 2. Additionally, compute 
!  the relative error of the solution using the energy norm.
!------------------------------------------------------------------------------

Check Keywords "Warn"

Header
  Mesh DB "." "square"
End

Simulation
  Max Output Level = 5
  Coordinate System = "Cartesian 2D"
  Simulation Type = Steady
  Output Intervals(1) = 1
  Steady State Max Iterations = 1
!  Post File = "interpolationtest.ep"
End

Body 1
  Equation = 1
  Material = 1
End

!----------------------------------------------------------
! No material parameters needed to define the solution:
!----------------------------------------------------------
 Material 1
!   Conductivity = Real 1.0
 End

Equation 1
  Active Solvers(1) = 1
End

Solver 1
  Equation = "Interpolation test"
  Variable = "P"
  Variable DOFs = 1
  Procedure = "EdgeElementTest" "EdgeElementSolver"

  ! Element definition for second-order triangle:
  Element = "n:0 e:2 b:2"

  Optimize Bandwidth = False
  Bubbles in Global System = Logical True
  Linear System Solver = Iterative
  Linear System Iterative Method = GCR
  Linear System Preconditioning = ILU0
  Linear System Row Equilibration = Logical True
  Linear System Max Iterations = 1000
  Linear System Convergence Tolerance = 1e-12

  Error Computation = Logical True
  Use Energy Norm = Logical True
  Tabulate Basis = Logical False
End

Solver 1 :: Reference Norm = Real 6.15433172E-02
Solver 1 :: Reference Norm Tolerance = Real 1.0E-6
