Check Keywords Warn

Header
  Mesh DB "." "Step"
End

Simulation
  Max Output Level = 5
  Coordinate System = Cartesian 2D
  Simulation Type = Transient
  Timestepping Method = BDF
  BDF Order = 2
  Timestep Sizes = 2.0
  Timestep Intervals = 10
  Output Intervals = 1
  Steady State Max Iterations = 2
! Output File = "ad1.result"
! Post File = "ad1.ep"
End

Body 1
  Equation = 1
  Material = 1
End

Equation 1
  Active Solvers = 1
End

Solver 1
  Equation = Advection Diffusion
  Variable = Poison
  Variable DOFs = 1
  Procedure = "AdvectionDiffusion" "AdvectionDiffusionSolver"
  Linear System Solver = Iterative
  Linear System Iterative Method = BiCGStab
  Linear System Max Iterations = 200
  Linear System Convergence Tolerance = 1.0e-08
  Linear System Preconditioning = ILU1
  Linear System ILUT Tolerance = 1.0e-03
  Nonlinear System Max Iterations = 1
  Nonlinear System Convergence Tolerance = 1.0e-4
  Nonlinear System Newton After Tolerance = 1.0e-3
  Nonlinear System Newton After Iterations = 10
  Nonlinear System Relaxation Factor = 1
  Steady State Convergence Tolerance = 1.0e-4
! Stabilize = False  ! this is default
  Bubbles = False
End

Material 1
  Density = 1.3
  Poison Diffusivity = Real 1.0e-3
End

Boundary Condition 1
  Target Boundaries = 1
  Poison = Real 1.0
End

Solver 1 :: Reference Norm = Real 0.426963082339
RUN

!End Of File

