! This is consistency test for Hcurl conforming elements. 
! + utility for timing their performance.  
! This test case with lowest order non-Piola version.  
!
! P.R. 9.9.2022

Check Keywords "Warn"

Header
  Mesh DB "." "unitelems"
!  Mesh DB "." "cube"
End 

Simulation
  Max Output Level = 10
  Coordinate System = Cartesian 3D
  Simulation Type = Steady
  Output Intervals(1) = 1
  Steady State Max Iterations = 1
!  Post File   = "case.vtu"
End

Body 1
  Equation = 1
  Material = 1
End

Material 1
End

Equation 1 :: Active Solvers(1) = 1

Solver 1
  Equation = "Test"
  Procedure = "SingleEdgeElements" "SingleEdgeElements"

! Activate for the proper edge element settings.
! First the lowest order. 
  Use Piola Transform = False
  Quadratic Approximation = False

! Activate for timing 
! Timing Cycles = Integer 1000000
End

! 1st test mass matrices
Solver 1 :: Reference Norm = 2.3333333 ! 808
RUN
Solver 1 :: Reference Norm = 1.0 ! 706
RUN
Solver 1 :: Reference Norm = 0.89660494 ! 605
RUN
Solver 1 :: Reference Norm = 0.48333333 ! 504
RUN
Solver 1 :: Reference Norm = 1.3333333 ! 404
RUN
Solver 1 :: Reference Norm = 0.5 ! 303
RUN
! Then test the stiffness matrix
Solver 1 :: Reference Norm = 40.000000 ! 808
RUN
Solver 1 :: Reference Norm = 31.333333 ! 706
RUN
Solver 1 :: Reference Norm = 26.666667 ! 605
RUN
Solver 1 :: Reference Norm = 22.666667 ! 504
RUN
Solver 1 :: Reference Norm = 16.000000 ! 404
RUN
Solver 1 :: Reference Norm = 18.000000 ! 303
RUN
