! 
! A sif file to test a surface impedance BC
!
! Here the electric conductivity is given only on a boundary and
! the equations for the scalar potential are thus assembled over
! this surface. The tangential trace of H thus makes a jump and
! allows for the generation of surface current.

Check Keywords "Warn"

Header
  Mesh DB "." "wire"
End

Simulation
  Max Output Level = 5
  Coordinate System = "Cartesian"
  Simulation Type = Steady
  Steady State Max Iterations = 1
  Output Intervals(1) = 1

  Coordinate Scaling = 1.0e-3

  $w=1.0e6
  Angular Frequency = Real $w
!  Post File = skin.vtu
End

Body 1
  Name = "Wire"
  Equation = 1
  Material = 1
End

Body 2
  Name = "Air"
  Equation = 1
  Material = 2
End

Material 1
  Name = "Cu"
  Permittivity = 0
!  Relative Permittivity = 1
  Relative Permeability = 1
  Electric Conductivity = 0.0
!  Electric Conductivity = Real 58e6
!  Skin Electric Conductivity = Real 58e6
End

Material 2
  Name = "Air"
  Permittivity = 0  
!  Relative Permittivity = 1.0
  Relative Permeability = 1.0
  Electric Conductivity = 0.0
End 

Equation 1
  Active Solvers(3) = 1 2 3
End


Solver 1
  Equation = "MGDynamics"

  Variable = "AV[AV re:1 AV im:1]"
  Procedure = "MagnetoDynamics" "WhitneyAVHarmonicSolver"

  Use Piola Transform = true

  Linear System Symmetric = True
  Linear System Solver = "Iterative"
  Linear System Preconditioning = none
  Linear System Residual Output = 50
  Linear System Max Iterations = 1000
  Linear System Iterative Method = BiCGStabl
  Linear System Convergence Tolerance = 1.0e-8
  BicgStabl Polynomial Degree = 4
End


Solver 2
  Equation = "MGDynamicsCalc"

  Procedure = "MagnetoDynamics" "MagnetoDynamicsCalcFields"
  Linear System Symmetric = True

  Potential Variable = String "AV"

  Calculate Magnetic Vector Potential = True
  Calculate Current Density = Logical True
  Calculate Electric Field = Logical True
  Calculate Magnetic Field Strength = Logical True
  Calculate Joule Heating = True

  Calculate Nodal Heating = True
  Calculate Nodal Current = Logical True

  Steady State Convergence Tolerance = 0
  Linear System Solver = "Iterative"
  Linear System Preconditioning = None
  Linear System Residual Output = 0
  Linear System Max Iterations = 5000
  Linear System Iterative Method = CG
  Linear System Convergence Tolerance = 1.0e-8

  Calculate Nodal Fields = Logical False
  Impose Body Force Potential = Logical True
  Impose Body Force Current = Logical True

  Discontinuous Bodies = True
  calculate harmonic peak power = logical False
End


Solver 3
  Exec Solver = after all
  Equation = "ResultOutput"
  Procedure = "ResultOutputSolve" "ResultOutputSolver"
  Output File Name = skin
  Vtu format = Logical True
  Discontinuous Bodies = Logical True
  Save Geometry IDs = Logical True
End

Solver 4
  Exec Solver = Never
  Equation = "SaveLine"
  Procedure = "SaveData" "SaveLine"

  FileName = f.dat
  Polyline Coordinates(2,3) = -5.0e-3 0.0 5.0e-3 5.0e-3 0.0 5.0e-3
  Polyline Divisions(1) = 200 
End

Solver 5
  Exec Solver = after all
  Equation = "SaveScalars"
  Procedure = "SaveData" "SaveScalars"

  Filename = g.dat
  Show Norm Index = 3
End


Boundary Condition 1
  !
  ! No surface currents, given scalar potential
  !
  Name = "WireStart"
  Target Boundaries(1) = 1 

  AV re = Real 0.0
  AV im = Real 0.0
End

Boundary Condition 2
  !
  ! Impedance BC
  !
  Name = "WireSurface"
  Target Boundaries(1) = 2
  Layer Electric Conductivity = Real 58e6
  Layer Relative Permeability = Real 1
End

Boundary Condition 3
  !
  ! No surface currents, given scalar potential
  !
  Name = "WireEnd"
  Target Boundaries(1) = 3

  AV re = Real 0.01
  AV im = Real 0.0
End

Boundary Condition 4
  Name = "AirStart"
  Target Boundaries(1) = 4

  AV re {e} 1 = Real 0.0
  AV re {e} 2 = Real 0.0
  AV re {e} 3 = Real 0.0

  AV im {e} 1 = Real 0.0
  AV im {e} 2 = Real 0.0
  AV im {e} 3 = Real 0.0

End


Boundary Condition 5
  Name = "AirSurface"
  Target Boundaries(1) = 5

  AV re {e} 1 = Real 0.0
  AV re {e} 2 = Real 0.0
  AV re {e} 3 = Real 0.0

  AV im {e} 1 = Real 0.0
  AV im {e} 2 = Real 0.0
  AV im {e} 3 = Real 0.0

End

Boundary Condition 6
  Name = "AirEnd"
  Target Boundaries(1) = 6 

  AV re {e} 1 = Real 0.0
  AV re {e} 2 = Real 0.0
  AV re {e} 3 = Real 0.0

  AV im {e} 1 = Real 0.0
  AV im {e} 2 = Real 0.0
  AV im {e} 3 = Real 0.0

End


Solver 1 :: Reference Norm = 4.84256816E-04
Solver 1 :: Reference Norm Tolerance = 1e-4
Solver 5 :: Reference Norm = 7.22553635E-04
Solver 5 :: Reference Norm Tolerance = 1e-4
