! buckling through ElasticSolve, against the reference value that test publishes for
! StressSolve. The same geometric stiffness as the sibling ElasticGeomStiff, put in the
! other matrix: "Stability Analysis" negates it into the MASS slot in place of the
! density mass, so the eigenvalues are the load multipliers at which the stiffness
! stops being positive definite -- the critical buckling loads -- rather than
! frequencies.
!
! That substitution is the thing to guard: a density mass left in the slot alongside it
! gives a problem that is neither buckling nor vibration. Removing the keyword here
! turns the checked eigenvalue from 1.10E+00 into the 1.10E+02 of the plain vibration
! problem, two orders out.
!
! As with the sibling, the original names its solver by the built-in equation name and
! this mirror adds the Procedure line.
!
! Derived from fem/tests/buckling.

Header
  CHECK KEYWORDS Warn
  Mesh DB "." "buckling"
End

Simulation
  Max Output Level = 5
  Coordinate System = "Cartesian 2D"
  Coordinate Mapping(3) = 1 2 3
  Simulation Type = "Steady State"
  Steady State Min Iterations = 1
  Steady State Max Iterations = 1
  Output Intervals = 1
  Solver Input File = "buckling.sif"
! Output File = "buckling.dat"
! Post File = "buckling.ep"
End

Constants
End

Body 1
  Equation = 1
  Material = 1
End

Equation 1
  Stress Analysis = Logical True
End

Solver 1
  Equation = "Stress Analysis"
  Procedure = "ElasticSolve" "ElasticSolver"
  Large Deflection = False
  Variable = "Displacement"
  Variable Dofs = 2
  Plane Stress = Logical True

  Eigen Analysis = True
  Stability Analysis = Logical True
  Eigen System Values = 10
  Eigen System Convergence Tolerance = Real 1.0e-6

  Linear System Scaling = Logical True
  Linear System Symmetric = Logical True

  Linear System Solver = Direct
! Linear System Direct Method = UMFPack
  Linear System Convergence Tolerance = 1.0e-6
  Linear System Iterative Method = Bicgstab
  Linear System Max Iterations = 500
  Linear System Preconditioning = ILU1
  Linear System Residual Output = 0
  Linear System Abort Not Converged = True

  Nonlinear System Convergence Tolerance = 1.0e-05
  Nonlinear System Max Iterations = 1
  Nonlinear System Newton After Iterations = 3
  Nonlinear System Newton After Tolerance = 1.0e-02
  Nonlinear System Relaxation Factor = 1.0

  Optimize Bandwidth = False
End

Solver 2 
  Equation = SaveScalars
  Procedure = "SaveData" "SaveScalars"
!  Filename = f.dat
  Show Norm = True
  Show Norm Index = 1

  Variable 1 = Displacement
  Save EigenValues = Logical True
End


Material 1
  Density = 1
  Youngs Modulus = 3.890733451865769e+04
! Youngs modulus has been chosen here such that the Eulerian
! solution (critical loads) is given by (2n+1)^2 for n=0,1,2,...
  Poisson Ratio = 0.3
End

Boundary Condition 1
  Target Boundaries(1) = 1
  Displacement 1 = 0
  Displacement 2 = 0
End

Boundary Condition 2
  Target Boundaries(1) = 2
  Force 1 = -20.0
End

Solver 2 :: Reference Norm = Real 1.098300116301E+000
Solver 2 :: Reference Norm Tolerance = Real 1e-4
RUN
