! Case of 2D hinged beam using either the equation of circle or
! its analytical expression inside the code. These allow for larger
! displacements tha just using local n-t coordinate system.
!
! P.R. 30.8.2022

Check Keywords "Warn"

Header
  Mesh DB "." "hinge"
End

Simulation
  Coordinate System = "Cartesian"
  Max Output Level = 5
  Simulation Type = Steady state
  Steady State Max Iterations = 1
  Post File = case.vtu
End

Body 1
  Equation = 1
  Material = 1
End

Material 1
  Youngs modulus = 1.0e3
  Poisson ratio = 0.3
End

Equation 1
  Active Solvers(1) = 1 
End 

Solver 1
  Equation = "Displacement analysis"
  Procedure = "ElasticSolve" "ElasticSolver"
	
  Variable = -dofs 2 Displacement

!  Calculate stresses = False
!  Calculate Principal = Logical True

  Linear System Solver = "Iterative"
  Linear system iterative method = BiCGstabL
  Linear system convergence tolerance = 1.0e-8
  Linear system max iterations = 1000
  Linear system preconditioning = ILU1
  Linear system residual output = 10

  Steady State Convergence Tolerance = 1e-08

  Nonlinear System Max Iterations = Integer 30
  Nonlinear System Convergence Tolerance = Real 1.0e-6

!  Linear System Residual Mode = True
End


Boundary Condition 1      
  Name = "Bottom" 
  Target Boundaries(1) = 1  
End

Boundary Condition 2
  Name = "Sides" 
  Target Boundaries(2) = 2 4
End

Boundary Condition 3
  Name = "Top" 
  Target Boundaries(1) = 3
  Force 2 = -30.0
End

Boundary Condition 4
  Name = "LeftCircle" 
  Target Boundaries(4) = 5 6 7 8

!  Displacement Hinge = Logical True
  Displacement Curve = Variable "dummy"
    Real MATC "(tx(0)-1)^2+(tx(1)-1)^2-0.5^2"

! Normal-tangential may be useful when adding friction some day...
  Normal-Tangential Displacement = True
End

Boundary Condition 5
  Name = "RightCircle" 
  Target Boundaries(4) = 9 10 11 12

! This works for 2D circle and 3D cylinder
  Displacement Hinge = Logical True

!  Normal-Tangential Displacement = True
!  Displacement Curve = Variable "dummy"
!    Real MATC "(tx(0)-9)^2+(tx(1)-1)^2-0.5^2"
End 


Solver 1 :: Reference Norm = 4.75093489E-01


