Header
  CHECK KEYWORDS Warn
  Mesh DB "." "land_gauss"
End

Simulation
  Max Output Level = 5
  Coordinate System = "Cartesian"
  Coordinate Mapping(3) = 1 2 3
  Simulation Type = Steady
  Steady State Max Iterations = 1
  Output Intervals = 0
!  Post File = richards.ep
End

Constants
End

Body 1
  Name = "dyke"
  Equation   = 1
  Material   = 1
  Body force = 1
End

Equation 1
  Active Solvers(2) = 2 3
End

Material 1
  Porosity Model = "van Genuchten"
  van Genuchten Alpha = 100.0
  van Genuchten N = 1.4
  van Genuchten M = 0.3
  Saturated Hydraulic Conductivity = 5.0e-7
End


Body Force 1
! exponential shape of the dyke
  Mesh Translate 2 = Variable Coordinate 1
    Real MATC "4.0*exp(-0.05*(tx-25)^2)"

  Mesh Relax = Variable Coordinate 2
    Real MATC "tx/6"
End


Solver 1
! Solves the new mesh positions combining rigid mesh movement
! and a given relaxation field [0,1].

  Exec Solver = Before all

  Equation = MeshDeform
  Procedure = "RigidMeshMapper" "RigidMeshMapper"
End

Solver 2
  Equation = "RichardsSolver"
  Procedure = File "RichardsSolver" "RichardsSolver"
  Variable = TotalHead

!  Discontinuous Galerkin = Logical True ! not operational yet

  Linear System Solver = Iterative
  Linear System Iterative Method = BiCGStabl
  Bicgstabl polynomial Degree = 4
  Linear System Max Iterations  = 1000
  Linear System Preconditioning = ILU0
  Linear System Convergence Tolerance = 1.0e-12
  Linear System Residual Output = 10
!  Linear System Convergence Measure = String solution

!  Linear System Solver = Direct
  Linear System Direct Method = umfpack

  Nonlinear System Max Iterations = 30
  Nonlinear System Convergence Tolerance = 1.0e-6
!  Nonlinear System Convergence Measure = solution
  Nonlinear System Relaxation Factor = 1.0

! Uses saturated conditions (pure Darcy flow) for the 1st iteration
  Saturated Initial Guess = True

! These definitions are used to apply for a limiter on the r.h.s. 
! so that there can never be a pond of water.

  Apply Limiter = True
  Limiter Load Tolerance = 1.0e-12
  Limiter Value Tolerance = 1.0e-5

!  Bubbles = Logical True
End

Solver 3
! computation is suppressed in the tests
  Exec Solver = never
  Equation = "RichardsFlux"
  Procedure = File "RichardsSolver" "RichardsPostprocess"

  Target Variable = String "TotalHead"
  Flux Multiplier = Real 1.0e9

  Linear System Convergence Tolerance = 1.0e-12
End


Boundary Condition 1
  Target Boundaries = 1
  Name = "Bottom"
End

Boundary Condition 2
  Target Boundaries = 2 
  Name = "RightWall"
End

Boundary Condition 3
  Target Boundaries = 3
  Name = "Left"
  
! The total head comes from the surface level of the pond
! Above the surface level the total head is let free
  TotalHead = Real 8.5
  TotalHead Condition = Variable Coordinate 2
    Real MATC "8.5-tx"
End


Boundary Condition 4
  Target Boundaries = 4 
  Name = "Right"

! On the r.h.s. the pond is assumed always to vanish 
! and hence the maximum total head equals the y-coordinate
  TotalHead Upper Limit = Equals Coordinate 2

End


Boundary Condition 5
  Target Boundaries = 5
  Name = "LeftWall"
End


Solver 2 :: Reference Norm = Real 7.5093881
RUN






