Check Keywords Warn

Header
  Mesh DB "." "radiator"
End

Constants
  Stefan Boltzmann = 5.67e-8
End

Simulation
  Max Output Level = 5
  Coordinate System = Cartesian 2D
  Simulation Type = Steady State
  Steady State Max Iterations = 1
  Output Intervals = 1

!  Post File = a.ep
  Post File = case.vtu
End

Body 1
  Equation = 1
  Material = 1
  Initial Condition = 1
End

Body 2
  Equation = 1
  Material = 2
  Initial Condition = 1
End

Initial Condition 1
  Temperature = 250.0
End


Material 1
   Density = 1.0
   Heat Conductivity = 1.0
End

Material 2
   Density = 1.0
   Heat Conductivity = 1.0
End

Solver 1
  Equation = Heat Equation
  Procedure = "HeatSolveVec" "HeatSolver"

  Variable = Temperature

  Linear System Solver = Iterative
  Linear System Iterative Method = BiCGStabL

  Linear System Convergence Tolerance = 1.0e-12
  Linear System Max Iterations = 500
  Linear System Preconditioning = ILU

  Nonlinear System Newton After Tolerance = 1.0e-9
  Nonlinear System Newton After Iterations = 1
  Nonlinear System Max Iterations = 50
  Nonlinear System Relaxation Factor = 1
  NonLinear System Convergence Tolerance = 1.0e-8

  Steady State Convergence Tolerance = 1.0e-8

  Radiator Coordinates(2,3) = Real \
          0.15 0.15 0.5 \
          0.85 0.85 0.5

  Radiator Power 1 = Real 2200
  Radiator Power 2 = Real 300

  Viewfactor area tolerance   = 0.001
  Viewfactor factor tolerance = 0.001
  Viewfactor number Of Rays = 4
End

Equation 1
  Active Solvers = 1
End

Boundary Condition 1
   Target Boundaries(2) = 1 2

   Heat Flux BC = True
   Radiation Target Body = -1
   Radiator BC = Logical True
End

Boundary Condition 2
   Target Boundaries = 3
   Temperature = 273
End

Boundary Condition 3
  Target Boundaries = 4
  Temperature = 350
End

Solver 1 :: Reference Norm = Real 348.95464
Solver 1 :: Reference Norm Tolerance = Real 1.0e-4
