$ omega_z = 50
$ mu0 = 4*pi*10^-7
$ mu_pm = 1.3
$ mur_1 = 1
$ mur_2 = 1

Header
  Mesh DB "." "cylinder"
End

Simulation
  Simulation Type = Steady State
  mesh levels = 1
End

Solver 1
  Exec Solver = Always
  Equation = "mgdyn"
  Procedure = "MagnetoDynamics" "WhitneyAVSolver"
  Variable = "AV"

  Fix Input Current Density = Logical false
  Use Piola Transform = Logical false
  Use Tree Gauge = Logical False

  Linear System Solver = iterative
  Linear System Direct Method = mumps
  Linear System Preconditioning = ilu0
  Linear System Iterative Method = bicgstab  !
  bicgstabl polynomial degree = 4

  Linear System Residual Output = 20
  Linear System Max Iterations = 400
  Linear System GCR Restart = 600
  Linear System Convergence Tolerance = 1e-9
  Linear System Abort Not Converged = False

  Steady State Convergence Tolerance = 1e-9
  Linear System Normwise Backward Error = Logical false

  Edge Basis = Logical True
  Apply Mortar BCs = Logical False
  !Optimize Bandwidth = False
End 

Solver 2
  Exec Solver = always
  Equation = "MGDynamicsCalc"

  Procedure = "MagnetoDynamics" "MagnetoDynamicsCalcFields"
  Linear System Symmetric = True
  Potential Variable = String "AV"
  Use Piola Transform = Logical false

  Calculate Current Density = Logical True
  Calculate Electric Field = Logical True
  Calculate Magnetic Field Strength = Logical True
  Calculate Magnetic Vector Potential = Logical True
  Calculate Magnetic Flux Density = Logical True
  Calculate Field Energy = Logical True
  Calculate Elemental Fields = Logical True
  Calculate Joule Heating = Logical True
  Calculate Nodal Forces = Logical True

  Linear System Solver = "Iterative"
  Linear System Preconditioning = None
  Linear System Residual Output = 0
  Linear System Max Iterations = 5000
  Linear System Iterative Method = CG
  Linear System Convergence Tolerance = 1.0e-8
  Edge basis = Logical True
End

Solver 3
!  Exec Solver = never
  Procedure = "SaveData" "SaveScalars"
  Filename = scalars.dat
  show norm index = integer 1
End

Solver 4
  exec solver = never
  Equation = "result output"
  Procedure = "ResultOutputSolve" "ResultOutputSolver"
  Save Geometry IDs = Logical True
  Output File Name = case
  Output Directory = results
  Vtu Format = Logical True
  discontinuous bodies = true
End


Material 1
  Relative Permeability = Real $ mur_1 
  Relative Permittivity = Real 1
  Electric Conductivity = Real 1e5
End

Material 2
  Relative Permeability = Real $ mur_2
  Relative Permittivity = Real 1
  Electric Conductivity = Real 1e-3
End

Body Force 1
  Angular Velocity 3 = Real $ omega_z
  !Magnetization 3 = Real $ 1/(mur_1*mu0)
End

Body Force 2
  !Magnetization 3 = Real $ 1/(mur_2*mu0)
End

Body 1
  Target Bodies(1) = 1
  Equation = 1
  Material = 1
  Body Force = 1
End

Body 2
  Target Bodies(1) = 2
  Equation = 1
  Body Force = 2
  Material = 2
End

Boundary Condition 1
  Target Boundaries(1) = 4
  !Magnetic Field Strength 3 = Real $ 1/(mur_2*mu0)
  AV {e} 2 = Variable Coordinate 1
    REAL MATC "0.5*tx"
  AV {e} 1 = Variable Coordinate 2
    REAL MATC "-0.5*tx"
  !AV {e} = 0
  AV = 0
End

Equation 1
  Active Solvers(2) = 1 2
End

Solver 3 :: Reference Norm = Real 2.4096E+002
Solver 3 :: Reference Norm Tolerance = Real 1e-3
