Check Keywords "Warn"
INCLUDE toroidalcoil/mesh.names

Header
Mesh DB "." "toroidalcoil"
End

$ f = 1000
$ omega = 2*pi*f
$ intervals = 2
$ tsize = 1/(f*intervals)

Simulation
  Max Output Level = 5

  Coordinate System = "Cartesian"
  Simulation Type = Transient
  Timestepping Method = BDF
  BDF order = 1
  Timestep Sizes = $ tsize
  Timestep Intervals = $ intervals
  Steady State Max Iterations = 1
  Output Intervals(1) = 0

End

Initial Condition 1
 P = Real 0
 P {e} = Real 0
End

Solver 1
   Equation = "MGDynamics"

   Variable = "P"

   Procedure = "MagnetoDynamics" "WhitneyAVSolver"
   Fix Input Current Density = Logical True

   Linear System Symmetric = Logical false
   Linear System Solver = "Iterative"
   Linear System Preconditioning = None
   Linear System Convergence Tolerance = 1e-6
   Linear System Residual Output = 100
   Linear System Max Iterations = 500
   Linear System Iterative Method = BiCGStab
   BiCGstabl polynomial degree = 4

   Steady State Convergence Tolerance = 1e-6
   Linear System Abort Not Converged = False

End


Solver 2
   Equation = "MGDynamicsCalc"
   Procedure = "MagnetoDynamics" "MagnetoDynamicsCalcFields"
   Linear System Symmetric = True
   Potential Variable = String "P"

!   Calculate Magnetic Field Strength = Logical True
   Steady State Convergence Tolerance = 0
   Linear System Solver = "Iterative"
   Linear System Preconditioning = None
   Linear System Residual Output = 0
   Linear System Max Iterations = 5000
   Linear System Iterative Method = CG
   Steady State Convergence Tolerance = 1e-6
   Linear System Convergence Tolerance = 1.0e-8
End

!Solver 3
!  Exec Solver = after timestep
!  Equation = "ResultOutput"
!  Procedure = "ResultOutputSolve" "ResultOutputSolver"
!  Output File Name = toroidalcoilAnisotropic
!  Vtu format = Logical True
!End

Equation 1
  Name = "Coupled Equations"
  Active Solvers(2) = 1 2
End

Material 1
  Name = "Air"
  Electric Conductivity = 0
  Relative Permeability = 1
End

Material 2
  Name = "Iron"
!  Electric Conductivity = 1e4
  Electric Conductivity(3) = 1e4 0 1e4
  Relative Permeability = 1000
End

Material 3
  Name = "Copper"
  Electric Conductivity = 1
  Relative Permeability = 1.0
End

Body 1
   Name = "Air"
   Target Bodies(1) = $ air
   Equation = 1
   Material = 1
End

Body 2
   Name = "Ring"
   Target Bodies(1) = $ iron
   Equation = 1
   Material = 2
End

Body 3
   Name = "Cable"
   Target Bodies(1) = $ coil
   Equation = 1
   Material = 3
   Body Force = 1
End

Body Force 1
  Name = "Current Density"

  Current Density 1 = Variable Coordinate 1, Coordinate 2, Coordinate 3, time
   Real Procedure "currents" "currdens1"
  Current Density 2 = Variable Coordinate 1, Coordinate 2, Coordinate 3, time
   Real Procedure "currents" "currdens2"
  Current Density 3 = Variable Coordinate 1, Coordinate 2, Coordinate 3, time
   Real Procedure "currents" "currdens3"

End

Boundary Condition 1
  Target Boundaries(1) = $ FluxParallel
  P {e} = real 0
End

Boundary Condition 2
  Target Boundaries(1) = $ currentIn
  P {e} = real 0
End

Boundary Condition 3
  Target Boundaries(1) = $ Potential
  P {e} = real 0
  P = real 0
End

Boundary Condition 4
  Target Boundaries(1) = $ Flux
  Magnetic Flux Average = Logical True
End

Solver 2 :: Reference Norm = Real 0.1081
Solver 2 :: Reference Norm Tolerance = Real 1e-3
RUN
