! Test case for demonstration stress computation efficiently for p:2
! elements using the special p-multigrid method.
!
! P.R. 3.9.2021

! Polynomial degree of element
! This scheme works best for values 2!
$pn=2


Header
  CHECK KEYWORDS Warn
  Mesh DB "." "angle"
  Include Path ""
  Results Directory ""
End

Simulation
  Max Output Level = 5
  Coordinate System = Cartesian
  Coordinate Mapping(3) = 1 2 3
  Simulation Type = Steady state
  Steady State Max Iterations = 1
  Output Intervals = 1
 
  Serendipity P Elements = False
End


Body 1
  Target Bodies(1) = 1
  Name = "Body 1"
  Equation = 1
  Material = 1
End

Solver 1
  Equation = Linear elasticity
  Procedure = "StressSolve" "StressSolver"
  Variable = -dofs 2 Displacement

  Nonlinear System Max Iterations = 1
  Element = p:$pn$

  Linear System Positive Definite = Logical True
  Linear System Symmetric = True

! We use multigrid as preconditioner, to use it as solver change this.
! By theory multigrid should be more robust as preconditioner but could
! be faster as a solver. 
  Linear System Solver = iterative ! multigrid

! Toggle this active to get a reference with a direct method
!  Linear System Solver = direct

! gcr may be superior if number of iterations stay small
! otherwise use idrs, bicgstabl, etc. 
  Linear System Iterative Method = gcr !idrs
  Linear System Max Iterations = 500
  Linear System Convergence Tolerance = 1.0e-08

! You can edit here to compare to something more simple
  Linear System Preconditioning = Multigrid ! ILU2

! Settings for multigrid method
  MG Method = p
  MG Levels = $pn                                  
  MG Smoother = SGS ! cg
  MG Pre Smoothing iterations = 2
  MG Post Smoothing Iterations = 2

! The strategy to be used at the lowest level
  MG Lowest Linear Solver = direct
  Linear System Direct Method = umfpack

! Get info on linear system speed
  Linear System Timing = Logical True

  Calculate Stresses = Logical True
! The stress field is solved one-by-one using basically a mass
! matrix which is easy for any method. Hence use just basic cg.
  stress: Linear System Solver = iterative
  stress: Linear System Iterative Method = cg
  stress: Linear System Preconditioning = ILU1
  stress: Linear System Max Iterations = 1000
  stress: Linear System Convergence Tolerance = 1.0e-8
  stress: Linear System Symmetric = True
End


Solver 2
!  Exec Solver = never
  Equation = "save line"
  Procedure = "SaveData" "SaveLine"

! We have line going from corner to corner. 
  Polyline Coordinates(2,2) = -1.0 -1.0 3.0 2.999
  Polyline Divisions(1) = 400

  Filename = g$pn$.dat

! Just make a reference norm from sum of stress_xx entries. 
  Show Norm Index = 9
End

Solver 3
  Exec Solver = never
  Equation = "result output"
  Procedure = "ResultOutputSolve" "ResultOutputSolver"
  Output File Name = case
  Vtu Format = Logical True
  Lagrange Element Degree = $pn
End

Equation 1
  Name = "LinearElasticity"
  Active Solvers(1) = 1
End

Material 1
  Name = "Ideal"
  Density = 1.0e3
  Poisson ratio = 0.3
  Youngs modulus = 1.0e9
End

Boundary Condition 1
  Target Boundaries(1) = 1
  Name = "natural"
End

Boundary Condition 2
  Target Boundaries(1) = 2
  Name = "fixed"
  Displacement 1 = 0
  Displacement 2 = 0
End

Boundary Condition 3
  Target Boundaries(1) = 3
  Name = "force"
  Force 1 = 1.0e6
End

Solver 1 :: Reference Norm = 8.65945861E-03
Solver 2 :: Reference Norm = 1.86201174E+08
