! This is test case is related to the Shoebox test cases for FSI.
!
! This case only tests the plate solver run alone at top of the shoebox.
!
! P.R. 10.12.2017



$ AirDensity = 1.21
$ SoundSpeed = sqrt( 1.402 * 0.402 * 716 * 293)


Header
  Mesh DB "." "shoebox"
End

Constants
End

Simulation
  Max Output Level = 7
  Coordinate System = Cartesian
  Simulation Type = Steady State
  Output Intervals = 1
  Steady State Max Iterations = 1

!  Post File = "plate.vtu"
End

Body 1
  Material = 1
End

Body 2
  Equation = 1
  Material = 2
  Body Force = 1
End


Body Force 1
  Pressure = Real -1.0e5
End


Material 1
  Density = Real $ AirDensity
  Sound Speed = $ SoundSpeed
End

Material 2
  Density = 2710.0
  Youngs Modulus = 70e9
  Poisson Ratio = 0.3
  Thickness = 0.001  ! Shell Thickness for shell equation
End

Equation 1
  Active Solvers(1) = 1
End

Solver 1
  Equation = Plate Solver
  Procedure = "Smitc" "SmitcSolver"
  Linear System Solver = Direct
  Linear System Direct Method = umfpack
  
  Linear System Max Iterations = 500
  Linear System Residual Output = 10
  Linear System Iterative Method = BiCGStab
  Linear System Preconditioning = none
  Linear System Convergence Tolerance = 1.0e-8
  Linear System Residual Output = 10

  Nonlinear System Max Iterations = 1

! The defaults are True for the following 2 keywords:
!  Linear System Scaling = False
!  Optimize Bandwidth = False

! "Harmonic mode" create a fully functional linear system that can then be
! treated with other linear strategies. 
!  Harmonic Mode = Logical True
End


Solver 2
  Equation = "SaveScalars"
  Procedure = File "SaveData" "SaveScalars"

  Variable 1 = Deflection 1
  Operator 1 = min 
  Operator 2 = max 
  Operator 3 = int mean

  Filename = plate.dat
End


Boundary Condition 1
  Target Boundaries(4) = 1 2 3 4
  Name = "Sides"

  Deflection 1 = Real 0
  Deflection 2 = Real 0
  Deflection 3 = Real 0
End 

Boundary Condition 2
  Target Boundaries(1) = 5
  Name = "Bottom"
End 

Boundary Condition 3
  Target Boundaries(1) = 6
  Name = "Fsi"

  Save Scalars = True
  Body Id = 2
End


Solver 1 :: reference norm = 4.82107476E-01