header
  Mesh DB "." "Step"
  Include Path ""
  Results Directory ""
End


Simulation
  Max Output Level = 5 
  Coordinate System =  Cartesian 2D
  Coordinate Mapping(3) = 1 2 3

  Simulation Type = Transient ! Steady
  Steady State Max Iterations = 20

  Timestep Intervals = 10 
  Timestep Sizes = 2.5
  Output Intervals = 1
 Post File = "ad-trans.ep"
 Output File = "ad-trans.dat"
End


Constants
  Gravity(4) = 0 -1 0 9.82
  Stefan Boltzmann = 5.67e-8
End


Body 1
  Name = "Body1"
  Equation = 1
  Material = 1
End


Equation 1
  Name = "Equation1"

  Active Solvers(3) = 1 2 3 
  Convection = Computed
End


Solver 1
  Exec Solver = Before Timestep 
  Equation = restarting
  Procedure = "ReloadData" "ReloadSolution" 

   Reload Solution File = "flow.dat"
   Reload Starting Position = Integer 5 
   Reload Range Minimum = Integer 1 
   Reload Range Maximum = Integer 7 
   Reload Reading Intervals = Integer 1 
   Continuous Reading = Logical True
End

Solver 3
!  Exec Solver = Never
  Equation = "Mass transfer"
  Procedure = "AdvectionDiffusion" "AdvectionDiffusionSolver"
  Variable = "Species"

  Linear System Solver = Direct
  Linear System Direct Method = UMFPack

  Stabilization Method = Bubbles
  Steady State Convergence Tolerance = 1.0e-5

End


Solver 2
  Exec Solver = Never
   Equation = "Navier-Stokes"

   Linear System Solver = Iterative
   Linear System Iterative Method = BiCGStab
   Linear System Max Iterations = 500

   Stabilization Method = String Stabilized

   Linear System Convergence Tolerance = 1.0e-8
   Linear System Preconditioning = ILU1 
   Linear System Residual Output = 1
   Steady State Convergence Tolerance = 1.0e-5

   Nonlinear System Convergence Tolerance = 1.0e-5
   Nonlinear System Max Iterations = 1
   Nonlinear System Newton After Iterations = 3
   Nonlinear System Newton After Tolerance = 1.0e-2
   Nonlinear System Relaxation Factor = 1.0
End


Material 1
  Name = "Material1"
  Density = 1
  Viscosity = 0.01

  Species Diffusivity = 1.0e-4
End

Initial Condition 1
  Velocity 1 = 0.0
End

Boundary Condition 1
  Name = "Constraint2"

  Target Boundaries = 1

   Velocity 1 = 1.0 
   Velocity 2 = 0
   Species = Real 0.1
End

Boundary Condition 2
  Name = "Constraint2"
  Target Boundaries = 2

   Pressure = 0
   Velocity 2 = 0
End

Boundary Condition 3
  Name = "Constraint3"
  Target Boundaries = 3

   Velocity 1 = 0
   Velocity 2 = 0
  Species = Real 0
End

Solver 3 :: Reference Norm = Real 0.707530525454E-01
RUN
