! Test VTU output with Bulk only.
!
! P.R. 20.8.2020

Header
  CHECK KEYWORDS Warn
  Mesh DB "." "cube"
  Include Path ""
  Results Directory ""
End

Simulation
  Max Output Level = 5

  Coordinate System = "Cartesian"
  Coordinate Mapping(3) = 1 2 3

  Simulation Type = "Steady State"
  Steady State Max Iterations = 1
  Output Intervals = 0
End

Constants
  Gravity(4) = 0 -1 0 9.82
  Stefan Boltzmann = 5.67e-08
End

Body 1
  Name = "Body1"
  Equation = 1
  Material = 1
  Body Force = 1 
End


Body Force 1
  Name = "Heating"
  Heat Source = 1
End


Equation 1
  Name = "Equations"
  Active Solvers(1) = 1 
End

Solver 1
  Equation = "Heat Equation"
  Variable = "Temperature"
  Linear System Solver = "Iterative"
  Linear System Iterative Method = "BiCGStab"
  Linear System Max Iterations = 1000
  Linear System Convergence Tolerance = 1.0e-08
  Linear System Abort Not Converged = True
  Linear System Preconditioning = "ILU0"
  Linear System Residual Output = 10
  Steady State Convergence Tolerance = 1.0e-05
  Nonlinear System Max Iterations = 1
End


Solver 2
  Equation = "ResultOutput"
  Exec Solver = After Saving
   
  Procedure = "ResultOutputSolve" "ResultOutputSolver"
  Output File Name = "case" 

  Scalar Field 1 = String "Temperature"

  Binary Output = True

  Vtu format = Logical True
  Save Bulk Only = Logical True
End

Material 1
  Name = "Material1"
  Density = 1
  Heat Conductivity = 1
End

Boundary Condition 1
  Name = "SidesA"
  Target Boundaries(2) = 1 2 
  Temperature = 0
End

Boundary Condition 2
  Name = "SidesB"
  Target Boundaries(2) = 3 4  
  Temperature = 0
End

Solver 1 :: Reference Norm = 3.43808025E-02
Solver 2 :: Reference Values(6) = 29 3 864 841   172000 360.95145749438410 
Solver 2 :: Reference Norm = 1.0
