Check Keywords "Warn"
INCLUDE airgap/mesh.names

Header
  Mesh DB "." "airgap"
End

Simulation
  Max Output Level = 7

  Coordinate System = "Cartesian"
  Simulation Type = Steady
  Steady State Max Iterations = 1
  Output Intervals(1) = 0

!  Post File = case.vtu
End

Initial Condition 1
  P = Real 0
  P {e} = Real 0
End

Solver 1
  Equation = "MGDynamics"
  Variable = "P"
  Procedure = "MagnetoDynamics" "WhitneyAVSolver"

  Nonlinear System Convergence Tolerance = 1e-6
  Nonlinear System Max Iterations = 1
  Newton-Raphson Iteration = Logical True

! Linear system solver 
!-----------------------------------------
  Linear System Solver = "Iterative"
  Linear System Convergence Tolerance = 1e-8
  Linear System Iterative Method = BiCGStabl
  Linear System Preconditioning = none
  Linear System Scaling = True
  Linear System GCR Restart =  50
  Linear System Residual Output =  10
  Linear System Max Iterations =  1000
End

Solver 2
  Equation = "MGDynamicsCalc"
  Procedure = "MagnetoDynamics" "MagnetoDynamicsCalcFields"
  Linear System Symmetric = True
  Potential Variable = String "P"

  Calculate Magnetic Field Strength = Logical True
  Steady State Convergence Tolerance = 0
  Linear System Solver = "Iterative"
  Linear System Preconditioning = None
  Linear System Residual Output = 0
  Linear System Max Iterations = 5000
  Linear System Iterative Method = CG
  Linear System Convergence Tolerance = 1.0e-8
End

Solver 3
  Equation = "scalars"
  procedure = "SaveData" "SaveScalars"
  show norm index = 2
End

Equation 1
  Name = "Coupled Equations"
  Active Solvers(2) = 1 2
End

Material 1
  Name = "Air"
  Electric Conductivity = 0.0
  Relative Permeability = 1
End

Material 2
  Name = "Iron"
  Electric Conductivity = 0.0
  Relative Permeability = 1000
End

Material 3
  Name = "Copper"
  Electric Conductivity = 58.14e6
  Relative Permeability = 1.0
End

Body 1
  Name = "Air"
  Target Bodies(1) = $ Ilma
  Equation = 1
  Material = 1
End

Body 2
  Name = "Ring"
  Target Bodies(1) = $ M5
  Equation = 1
  Material = 2
End

Body 3
  Name = "Cable"
  Target Bodies(1) = $ alumiini
  Equation = 1
  Material = 3
End

Boundary Condition 1
  Target Boundaries(1) = $ FluxParallel
  P {e} = real 0
End

$ curr = 200
Boundary Condition 2
  Target Boundaries(1) = $ CurrentIn
  P {e} = real 0
  Electric Current Density = Real $ 1e5 * curr
End

Boundary Condition 3
  Target Boundaries(1) = $ CurrentOut
  P {e} = real 0
  P = real 0
  Electric Current Density = Real $ -1e5 * curr
End

Boundary Condition 4
  Target Boundaries(1) = $ Flux
  Save Scalars = True
End

Boundary Condition 5
  Target Boundaries(1) = $ airgap
  Air Gap Length = Real 0.001
  Air Gap Relative Permeability = Real 0.1
End

Solver 1 :: Reference Norm = 7.08538965E-05
Solver 2 :: Reference Norm = 3063.3440
Solver 3 :: Reference Norm = 9.922767E-02





