Check Keywords "Warn"

Header :: Mesh DB "." "square"

Simulation
  Max Output Level = 5
  Coordinate System = Cartesian
  Simulation Type = Steady
  Output Intervals(1) = 1
  Steady State Max Iterations = 1
!  Post File   = "case.vtu"
End
#print("this is lua")

Body 1
  Equation = 1
  Material = 1
  Body Force = 1
End

Material 1
  Convection Velocity 1 = 1
  Convection Velocity 2 = 0

  diffusion coefficient = 1.0
  convection coefficient = 9.0
  time derivative coefficient = 0.0
End

Body Force 1 :: Field Source = Real 1
Equation 1 :: Active Solvers(1) = 1

Solver 1
  Equation = "ModelPDE"
  Variable = "Field"
  Procedure = "ModelPDE" "AdvDiffSolver"
  Element = "p:2"
  Linear System Solver = Direct
  Steady State Convergence Tolerance = 1e-9
End

Boundary Condition 1
  Target Boundaries(1) = 1
  Field = 0.0
End

Boundary Condition 2
  Target Boundaries(1) = 2
  Robin Coefficient = 10.0
  External Field = 5.0
End

Boundary Condition 3
  Target Boundaries(2) = 3 4
  Field Flux = 10.0
End

Solver 1 :: Reference Norm = Real 1.0578593
Solver 1 :: Reference Norm Tolerance = Real 1.0E-5
RUN
