! Takes a temperature isocurve in 2D and writes a Gmsh geo file for that
!
! Differs from the 2D version in that the case is internally extruded
! to be 3D and the isoline is found on the bottom surface marked with 
! 'Create Isosurface' flag. 

Header
  CHECK KEYWORDS Warn
  Mesh DB "." "angle"
  Include Path ""
  Results Directory ""
End

Simulation
  Extruded Mesh Levels = 4

  Max Output Level = 5

  Coordinate System = "Cartesian"
  Coordinate Mapping(3) = 1 2 3

  Simulation Type = "Steady State"
  Steady State Max Iterations = 1
  Output Intervals = 1

  Post File = "TempDist.vtu"
End

Constants
  Gravity(4) = 0 -1 0 9.82
  Stefan Boltzmann = 5.67e-08
End

Body 1
  Name = "Body"
  Body Force = 1
  Equation = 1
  Material = 1
End

Equation 1
  Name = "Equations"
  Active Solvers(1) = 1 
End

Solver 1
  Exec Solver = "Always"
  Equation = "Heat Equation"
  Variable = "Temperature"
  Variable Dofs = 1
  Linear System Solver = "Iterative"
  Linear System Iterative Method = "BiCGStab"
  Linear System Max Iterations = 350
  Linear System Convergence Tolerance = 1.0e-08
  Linear System Abort Not Converged = True
  Linear System Preconditioning = "ILU0"
  Linear System Residual Output = 1
  Steady State Convergence Tolerance = 1.0e-05
  Stabilize = True
  Nonlinear System Convergence Tolerance = 1.0e-05
  Nonlinear System Max Iterations = 1
  Nonlinear System Newton After Iterations = 3
  Nonlinear System Newton After Tolerance = 1.0e-02
  Nonlinear System Relaxation Factor = 1.0
End


! This solver extracts the 1D isolines from 2D temperature field
! and stores them to a mesh called "isosurf"
!---------------------------------------------------------------------
Solver 2
  Exec Solver = after all
  Equation = "isoline"
  Procedure = "Isosurface" "IsosurfaceSolver"
  IsoSurface Variable = Temperature
  IsoSurface Values(1) = 0.02

  Output Directory = isoline
  Variable 1 = Temperature

  Save Gmsh Geo File = Logical True
  Geo Filename = File "mesh3d.geo"

! passed on to Gmsh
! Mesh Parameter = Real 0.01

! when are nodes assumed to be redundant
! Mesh Node Epsilon = Real 0.001
End

Material 1
  Name = "Material"
  Density = 1
  Heat Conductivity = 3
End

Body Force 1
  Name = "BodyForce"
  Heat Source = 1
End

Boundary Condition 1
  Name = "Constraint"
  Target Boundaries(1) = 1 
  Temperature = 0
End

Boundary Condition 2
  Name = "Bottom"
  Target Boundaries(1) = 2

  Create Isosurface = Logical True 
End

Boundary Condition 3
  Name = "Top"
  Target Boundaries(1) = 3
End



RUN
!End Of File
