! Solve Reissner-Naghdi shell equations in the case of a cylindrical benchmark problem with
! bending-dominated asymptotic behaviour. The problem has been described in 
! Pitkäranta et al. Shell deformation states and the finite element method: a benchmark study
! of cylindrical shells. Computer Methods in Applied Mechanics and Engineering 1995. 128:81-121.  

$ t = 1.0e-2

Check Keywords "Warn"

Header
  Mesh DB "." "tria3"
End

Simulation
  Max Output Level = 8
  Coordinate System = Cartesian 3D  !** This affects what ElementInfo returns (3D for getting right metric)
  Simulation Type = Steady
  Output Intervals(1) = 1
  Steady State Max Iterations = 1
!  Post File = "case2.vtu"
End

Body 1
  Equation = 1
  Material = 1
  Body Force = 1
End

Material 1
 Poisson Ratio = Real $1.0/3.0
 Youngs Modulus = Real 7.0e+10
 Shell Thickness = Real $t
End

Body Force 1 
  Normal Pressure = Variable Coordinate
     Real MATC "-t^3 * 1.0e+9 * (1-2*tx(0)*tx(0))"
End

Equation 1 :: Active Solvers(1) = 1

Solver 1
  Equation = "Shell equations"
  Variable = "U"
  Variable DOFs = 6
  Procedure = "ShellSolver" "ShellSolver"

!  Strain Reduction Operator = Integer 1

  Linear System Solver = "Iterative"
  Linear System Preconditioning = ILU2
!  Linear System Row Equilibration = Logical True
  Linear System Max Iterations = 1000
  Linear System Convergence Tolerance = 1e-8
  Linear System Iterative Method = GCR
  Linear System GCR Restart = 100
  Linear System Abort Not Converged = False
  Steady State Convergence Tolerance = 1e-09

 ! Activate output for the benchmark case considered:
  Compute Shell Area = Logical True
  Benchmark Problem = Logical True
  Benchmark Case = Integer 2
End

! ----------------------------------------------------
! BCs are defined with respect the global XYZ system:
! ----------------------------------------------------

Boundary Condition 1
  Target Boundaries(1) = 1
  U 2 = Real 0
  U 5 = Real 0
End

Boundary Condition 2
  Target Boundaries(1) = 2
  U 3 = Real 0
  U 6 = Real 0
End

Boundary Condition 3
  Target Boundaries(1) = 4
  U 1 = Real 0
  U 4 = Real 0
End

Solver 1 :: Reference Norm = Real 9.14070584E-03      ! This corresponds to the default strain reduction
Solver 1 :: Reference Norm Tolerance = Real 1.0e-5
