! Test case for two plates (in 2D) with temperature dependent
! emissivity. This model uses the spectral radiosity model.
! One may experiment with the combination of materials in use.
! Using 1+1 gives much higher heat fluxes than materials 2+2. 
!
! P.R. 2.1.2023

Check Keywords Warn

Header
  Mesh DB "." "two_plates"
End

Constants
  Stefan Boltzmann = 5.67e-8
End

Simulation
  Max Output Level = 5
  Coordinate System = Cartesian
  Simulation Type = Steady State
  Steady State Max Iterations = 1
  Output Intervals = 1
  Post File = case.vtu
End

Body 1
  Equation = 1
  Material = 1
  Initial Condition = 1
End

Body 2
  Equation = 1
  Material = 1
  Initial Condition = 1
End

Initial Condition 1
  Temperature = 300.0
End

Material 1
  Name = "MatA"
  Density = 1.0
  Heat Conductivity = 10.0

  Emissivity = Variable Temperature
    Real
      0.0 0.5
      100.0 0.5
      1000.0 0.9
      1100.0 0.9
    End    
End

Material 2
  Name = "MatB"
  Density = 1.0
  Heat Conductivity = 10.0

  Emissivity = Variable Temperature
    Real
      0.0 0.9
      100.0 0.9
      1000.0 0.5
      1100.0 0.5
    End    
End



Solver 1
  Equation = Heat Equation
  Procedure = "HeatSolveVec" "HeatSolver"

  Variable = Temperature

  Linear System Solver = Iterative
  Linear System Iterative Method = BiCGStabL

  Linear System Convergence Tolerance = 1.0e-8
  Linear System Max Iterations = 500
  Linear System Preconditioning = ILU1

  Nonlinear System Newton After Tolerance = 1.0e-5
  Nonlinear System Newton After Iterations = 1
  Nonlinear System Max Iterations = 50
  Nonlinear System Relaxation Factor = 0.5
  Nonlinear System Convergence Tolerance = 1.0e-5

  Steady State Convergence Tolerance = 1.0e-8

  Vierfactor Binary Output = Logical True

  Viewfactor raytrace tolerance = 0.001
  Viewfactor area tolerance = 0.01
  Viewfactor factor tolerance = 0.001
  Viewfactor number Of Rays = 8

  radiation: Linear System Solver = Iterative
  radiation: Linear System Convergence Tolerance = 1.0e-8
  radiation: Linear System Residual Output = 0

  Radiosity Model = Logical True
  Spectral Model = True
  Spectral dT = 10.0

  Calculate Loads = True
  Calculate Radiosity Fields = Logical True
End


Solver 2
  Equation = SaveScalars
  Procedure = "SaveData" "SaveScalars"

  Variable 1 = Temperature Loads
  Operator 1 = boundary sum
  Mask Name 1 = intflux 
  Mask Name 2 = outflux

  Filename = f.dat
  Show Norm Index = 1
End



Equation 1
  Active Solvers = 1
End


Boundary Condition 1
  Name = "LeftInside"
  Target Boundaries(1) = 1
  Radiation = Diffuse Gray
End

Boundary Condition 2
  Name = "RightInside"
  Target Boundaries(1) = 2
  Radiation = Diffuse Gray
End

Boundary Condition 3
  Name = "LeftOutside"
  Target Boundaries(1) = 3 
  Temperature = 1000.0
  intflux = Logical True
End

Boundary Condition 4
  Name = "RightOutside"
  Target Boundaries(1) = 4
  Temperature = 100.0
  outflux = Logical True
End



Solver 1 :: Reference Norm = 6.72696784E+02
Solver 2 :: Reference Norm = 2.53089763E+04
