!------------------------------------------------------------------
!
! 3d patch test
!
! Jukka Aho / 31.3.2015
!
! Bodies:
! 55 = lower block
! 56 = upper block
!
! Surfaces:
! 57 = bottom surface of lower block
! 58 = top surface of lower block
! 59 = bottom surface of upper block
! 60 = top surface of upper block
! 61 = symmetry y-z
! 62 = symmetry x-z
!
! pressure in z direction
!
! Peter Råback / 10.6.2015
!
! Biorthogonal basis and elimination added. 
! There is small error introduced by biorthogonality, is it unevitable. 
!  
!------------------------------------------------------------------

Header
  CHECK KEYWORDS Warn
  Mesh DB "." "cubes"
  Include Path ""
  Results Directory ""
End

$fileid="a"

Simulation
  Max Output Level = 5
  Coordinate System = Cartesian 3D
  Coordinate Mapping(3) = 1 2 3
  Simulation Type = Steady State

  Steady State Min Iterations = 1
  Steady State Max Iterations = 1

!  Post File = case_$fileid$.vtu

  Mesh Levels = 3

! The ElasticSolver does not really like the Dirichlet conditions at the start 
! of the nonlinear iteration. 
  Initialize Dirichlet Conditions = False
End

!Constants
!  Gravity(4) = 0 -1 0 9.82
!End

Equation 1
  Name = "Deformation"
  Active Solvers(1) = 1
  Plane Strain = Logical True
End

Body 1
  Name = "Lower block"
  Target Bodies(1) = 55
  Equation = 1
  Material = 1
End

Body 2
  Name = "Upper block"
  Target Bodies(1) = 56
  Equation = 1
  Material = 1
End

Material 1
  Name = "Ideal"
  Youngs modulus = 90.0
  Density = 10.0
  Poisson ratio = 0.25
End

Solver 1
  Equation = "Nonlinear elasticity"
  Procedure = "ElasticSolve" "ElasticSolver"
  Variable = -dofs 3 Displacement

  Nonlinear System Convergence Tolerance = 1.0e-5
  Nonlinear System Max Iterations = 10
  Nonlinear System Relaxation Factor = 1.0

  Linear System Solver = "Iterative"
  Linear System Iterative Method = "BiCGStab"
  Linear System Abort Not Converged = True
  Linear System Preconditioning = "ILU0"
  Linear System Residual Output = 10
  Linear System Max Iterations = 500
  BiCGStabl Polynomial Degree = 4
  
  Linear System Convergence Tolerance = 1.0e-10

  Apply Contact BCs = Logical True
! Save Contact = Logical True

! Restore the linear solution
! Elasticity Solver Linear = Logical True

  Calculate Stresses = Logical True
! Optimize Bandwidth = False

  Displace Mesh = Logical True
! Calculate Boundary Weights = Logical True

! Do not include constraints when analyzing the convergence and norm of a solution
!  Nonlinear System Convergence Without Constraints = Logical True
  Nonlinear System Consistent Norm = Logical True

! Eliminate linear constraint for better linear solver performance
  Eliminate Linear Constraints = Logical True
  Eliminate Slave = Logical True
End

Solver 2
  Exec Solver = never
  Equation = "SaveLine"
  Procedure = "SaveData" "SaveLine"
  Filename = f_$fileid$.dat
End

Boundary Condition 1
  Name = "Support"
  Target Boundaries(1) = 57
  Displacement 3 = Real 0.0
End

Boundary Condition 2
  Name = "Lower surface of upper block"
  Target Boundaries(1) = 58

  Mortar BC = Integer 3
  Mortar BC Nonlinear = Logical True
  Contact Depth Offset Initial = Real 1.0e-3
  !Contact Active Set Minimum = Integer 1
  !Contact No-Slip = Logical True

! Create a strong projector for the line setting y-coordinate to zero
  Flat Projector = Logical True

! a) Use weak projector or not
  Galerkin Projector = Logical False

! b) Use more tailored projector able to do accurate integration
  Level Projector = Logical True
  Level Projector Generic = True

! This is set automatically when using elimination
!  Use Biorthogonal Basis = Logical True
End

Boundary Condition 3
  Name = "Upper surface of lower block"
  Target Boundaries(1) = 59
End

Boundary Condition 4
  Name = "Pressure load the upper surface of upper block"
  Target Boundaries(1) = 60
  Normal Surface Traction = -1.0
End

Boundary Condition 5
  Name = "Symmetry y-z"
  Target Boundaries(1) = 61
  Displacement 1 = 0.0
End

Boundary Condition 6
  Name = "Symmetry x-z"
  Target Boundaries(1) = 62
  Displacement 2 = 0.0
End


Solver 1 :: Reference Norm = 6.58342380E-03
Solver 1 :: Reference Norm Tolerance = 1.0e-5
