!------------------------------------------------------------------
! Test case for conflicting normal-tangential and cartesian BCs. 
!
! P.R. / 28.8.2015
!------------------------------------------------------------------
 
$dx = 1.0
$dy = 1.0
$dz = 0.1
$fileid = "a"

Header
  CHECK KEYWORDS Warn
  Mesh DB "." "barrel"
  Include Path ""
  Results Directory ""
End

Simulation
  Max Output Level = 5
  Coordinate System = Cartesian
  Coordinate Mapping(3) = 1 2 3
  Simulation Type = Steady State
  Steady State Max Iterations = 1

! The ElasticSolver does not really like the Dirichlet conditions at the start 
! of the nonlinear iteration. 
  Initialize Dirichlet Conditions = False
End

Constants
  Gravity(4) = 0 -1 0 9.82
End

Body 1
  Name = "Cylinder"
  Target Bodies(1) = 1
  Equation = 1
  Material = 1
End


Solver 1
  Equation = "NonlinElast"

  Procedure = "ElasticSolve" "ElasticSolver"
!  Procedure = "StressSolve" "StressSolver"
  Variable = -dofs 3 Displacement

  Nonlinear System Convergence Tolerance = 1.0e-6
  Nonlinear System Max Iterations = 30

  Linear System Solver = "Iterative"
  Linear System Preconditioning = Ilu0
  Linear System Residual Output = 10
  Linear System Max Iterations = 5000
  Linear System Iterative Method = Bicgstab
  Linear System Convergence Tolerance = 1.0e-8

!  Calculate Stresses = Logical True
!  Linear System Residual Mode = Logical True
End


Solver 2
!  Exec Solver = never
  Equation = "result output"
  Procedure = "ResultOutputSolve" "ResultOutputSolver"
  Output File Name = case_$fileid$
  Vtu Format = Logical True
  Single Precision = Logical False
End


Equation 1
  Name = "Deformation"
  Active Solvers(1) = 1 
End


Material 1
  Name = "IdealMat"
  Youngs modulus = 1.0e3
  Density = 1000.0
  Poisson ratio = 0.3
End


Boundary Condition 1
  Name = "Top"
  Target Boundaries(1) = 1

  Normal-Tangential Displacement = Logical True
  Mass Consistent Normals = Logical True

  Displacement 1 = Variable "Coordinate 1"
    Real MATC "0.1+0.0*tx"
End

Boundary Condition 2
  Name = "Sides"
  Target Boundaries(1) = 2

  Displacement 1 = $ dx
  Displacement 2 = $ dy 
End


Boundary Condition 3
  Name = "Bottom"
  Target Boundaries(1) = 3

  Displacement 1 = 0.0

  Normal-Tangential Displacement = Logical True
  Mass Consistent Normals = Logical True
End
  
Solver 1 :: Reference Norm = 0.81720283 
