! Test case for creating 1D BCs at the intersection of two 2D BCs. 
! P.R. 1.4.2022

Header
  CHECK KEYWORDS Warn
  Mesh DB "." "cube"
  Include Path ""
  Results Directory ""
End

Simulation
  Max Output Level = 7
  Coordinate System = "Cartesian 3D"
  Simulation Type = "Steady State"
  Steady State Max Iterations = 1
!  Output Intervals = 0
!  Post File = "case.vtu"
End

Constants
  Gravity(4) = 0 -1 0 9.82
  Stefan Boltzmann = 5.67e-08
End

Body 1
  Name = "Body"
  Body Force = 1
  Equation = 1
  Material = 1
End

Equation 1
  Name = "Equations"
  Active Solvers(1) = 1 
End

Solver 1
  Equation = "Heat Equation"
  Variable = "Temperature"
  Linear System Solver = "Iterative"
  Linear System Iterative Method = "BiCGStab"
  Linear System Max Iterations = 500
  Linear System Convergence Tolerance = 1.0e-08
  Linear System Abort Not Converged = True
  Linear System Preconditioning = "ILU0"
  Linear System Residual Output = 10
  Nonlinear System Max Iterations = 1
End


Solver 2
!  Exec Solver = never

  Equation = SaveLine
  Procedure = "SaveData" "SaveLine"

  Filename = f.dat
End

Material 1
  Name = "Material"
  Density = 1
  Heat Conductivity = 3
End

Body Force 1
  Name = "BodyForce"
  Heat Source = 1
End


Boundary Condition 1
  Name = "South"
  Target Boundaries(1) = 1 
End

Boundary Condition 2
  Name = "East"
  Target Boundaries(1) = 2 
End

Boundary Condition 3
  Name = "North"
  Target Boundaries(1) = 3
End

Boundary Condition 4
  Name = "West"
  Target Boundaries(1) = 4 
End

Boundary Condition 5
  Name = "Bot"
  Target Boundaries(1) = 5
End

Boundary Condition 6
  Name = "Top"
  Target Boundaries(1) = 6
End

Boundary Condition 7
  Name = "South-East"
  Intersection BC(2) = Integer 1 2
  Temperature = 1
  Save Line = True
End

Boundary Condition 8
  Name = "North-West"
  Intersection BC(2) = Integer 3 4
  Temperature = -1
  Save Line = True
End

Boundary Condition 9
  Name = "North-Bot"
  Intersection BC(2) = Integer 3 5
  Heat Flux = 1
  Save Line = True
End

Boundary Condition 10
  Name = "South-Top"
  Intersection BC(2) = Integer 1 6
  Heat Flux = -1
  Save Line = True
End

Solver 1 :: Reference Norm = 4.34898316E-01
!End Of File
