! Thermal expansion of an ANISOTROPIC material under plane strain, through
! ElasticSolve, checked on a projected FIELD rather than on the displacement.
!
! The sibling ElasticThermalBiMetal covers the thermal eigenstrain reaching the
! displacement at all -- the capability ElasticSolve was silently missing. This one
! covers the two pieces that a displacement norm cannot see, and both of them were
! missing too:
!
! ONE, THE REPORTED STRAIN. StressSolve subtracts the thermal part before reporting,
! so what it calls "Strain" is the ELASTIC strain and the reported stress follows
! from it. ElasticSolve's postprocessing did not subtract anything. Measured by
! disabling the subtraction again: "Strain_xx" moves from -1.29e-3 to +2.41e-3 --
! 286%, and a change of sign -- and "Stress_xx" by 242%. So the checked value below
! is a direct assertion about the postprocessing, and the displacement being right
! is no protection against getting it wrong.
!
! TWO, THE CONFINED OUT-OF-PLANE EXPANSION. Under plane strain the out-of-plane
! direction cannot expand, and for an anisotropic material the stress that
! confinement produces has in-plane normal components. StressSolve folds that back
! into the in-plane expansion coefficients, using the out-of-plane couplings of the
! RAW elasticity matrix, before the plane condensation clears them. The folding is
! worth 0.32 * alpha on this material -- a third of the thermal strain. Measured by
! disabling it: "Strain_xx" moves 3.4%, "Stress_xx" 2.4%, "Stress_zz" 7.5%.
!
! It applies only to an anisotropic material under plane strain, which is why this
! test is that configuration and not a more natural one. Neither solver folds
! anything for an isotropic material -- an inconsistency inherited from StressSolve
! and deliberately left as it stands -- and under plane stress there is nothing to
! confine.
!
! THE REFERENCE VALUE IS STRESSSOLVE'S. On this problem the two solvers agree on
! every printed digit of "Strain_xx", "Stress_xx" and "Stress_zz", and field by
! field to 1e-14 with the displacement control at 6e-15.
!
! The temperature is constant, at 100 above the reference. That is deliberate: a
! uniform dT on an anisotropic, confined material still produces a nonuniform
! stress state, so nothing here needs a heat solve to be a real test. The coupled
! case with a computed temperature field is covered by running ThermalBiMetal2's
! sif through this solver, which reproduces its published norm to 7e-12.

Header
  Mesh DB "." "square"
End

Simulation
  Max Output Level = 5
  Coordinate System = Cartesian 2D
  Simulation Type = Steady State
  Steady State Max Iterations = 1
  Output Intervals = 0
End

Body 1
  Equation = 1
  Material = 1
  Initial Condition = 1
End

Initial Condition 1
  Temperature = 400.0
End

Material 1
  Density = 1.0
  Reference Temperature = 300.0
  ! Isotropic expansion of an anisotropic material: the eigenstrain is the same in
  ! every direction and the response to it is not, which is the whole point. Only
  ! the DIAGONAL of an expansion tensor is ever used, here as in StressSolve, so a
  ! full tensor would not test more than this does.
  Heat Expansion Coefficient = 1.2e-5
  ! An isotropic base (E = 1e3, nu = 0.3) made genuinely anisotropic: three
  ! different normal moduli, and C(3,4) = C(4,3) = 200. The out-of-plane couplings
  ! C(1,3) and C(2,3) are what the plane strain folding above reads.
  Youngs Modulus(6,6) = Real \
    1346.154  576.923  576.923    0.000    0.000    0.000 \
     576.923 1546.154  576.923    0.000    0.000    0.000 \
     576.923  576.923 1746.154  200.000    0.000    0.000 \
       0.000    0.000  200.000  384.615    0.000    0.000 \
       0.000    0.000    0.000    0.000  484.615    0.000 \
       0.000    0.000    0.000    0.000    0.000  584.615
End

Equation 1
  Active Solvers(2) = 1 2
  Plane Stress = FALSE
End

Solver 1
  Equation = "Elasticity"
  Procedure = "ElasticSolve" "ElasticSolver"
  Variable = -dofs 2 Displacement
  Exported Variable 1 = Temperature

  Large Deflection = False

  Calculate Stresses = Logical True
  Calculate Strains = Logical True
  Displace Mesh = Logical False

  Linear System Solver = Direct
  Linear System Direct Method = UMFPack

  Nonlinear System Max Iterations = 12
  Nonlinear System Convergence Tolerance = 1.0e-11
  Steady State Convergence Tolerance = 1.0e-9
End

Solver 2
  Equation = "SaveScalars"
  Procedure = "SaveData" "SaveScalars"
  Exec Solver = After Simulation
  Show Norm Index = 1
  ! Strain_xx is the checked one because it is the field the postprocessing
  ! subtraction acts on directly. Stress_zz is reported because it is the most
  ! sensitive of the three to the folding, at 7.5%: it is the out-of-plane stress
  ! the confinement produces.
  Variable 1 = String "Strain_xx"
  Operator 1 = String "max abs"
  Variable 2 = String "Stress_xx"
  Operator 2 = String "max abs"
  Variable 3 = String "Stress_zz"
  Operator 3 = String "max abs"
End

! One edge clamped, everything else free: the thermal strain is the only thing
! loading the body.
Boundary Condition 1
  Target Boundaries(1) = 1
  Displacement 1 = Real 0.0
  Displacement 2 = Real 0.0
End

! "max abs" keeps the sign of the extremum, so the log shows -1.294e-3 while the
! comparison is made on the magnitude.
Solver 2 :: Reference Norm = Real 1.29422254E-03
Solver 2 :: Reference Norm Tolerance = Real 1.0e-5
RUN
