! test case for complex valued solvers
! some solvers that were used for real value Poisson case are
! dropped out because they do not reach convergence. 

$ r =  1.224
$ c = 340
$ w = 15000
$ k = w / c

Header
  CHECK KEYWORDS Warn
  Mesh DB "." "MeshFiles"
End

Simulation
  Max Output Level = 5
  Angular Frequency = $w

  Coordinate System = "Cartesian"
  Simulation Type = "Steady State"
  Output Intervals = 1
  Steady State Max Iterations = 1
End

Body 1
  Equation = 1
  Material = 1
End

Equation 1 :: Helmholtz = Logical True

Solver 1
  Equation = "Helmholtz"

  Variable Dofs = 2
  Variable = "Pressure"

  Procedure = "HelmholtzSolve" "HelmholtzSolver"

  Exported Variable 1 = Flux
  Exported Variable 1 DOFs = 2

  Linear System Max Iterations = 3500
  Linear System Convergence Tolerance = 1.0e-08
  Linear System Abort Not Converged = True
  Linear System Preconditioning = "ILU2"
  Linear System Residual Output = 20
  Linear System Precondition Recompute = 1

  Steady State Convergence Tolerance = 1.0e-05

  Nonlinear System Convergence Tolerance = 1.0e-05
  Nonlinear System Max Iterations = 1
  Nonlinear System Newton After Iterations = 3
  Nonlinear System Newton After Tolerance = 1.0e-02
  Nonlinear System Relaxation Factor = 1
End

Material 1
  Density = $ r
  Sound Speed = $ c
End

Boundary Condition 1
  Normal Target Body = 0  ! Change normal direction if desired
  Target Boundaries(1) = 2
  Wave Flux 1 = 1
End

Boundary Condition 2
  Target Boundaries(1) = 1
  Wave Impedance 1 = Real $ c
End

Solver 1 :: Reference Norm = Real 0.128318193425E-01
Solver 1 :: Linear System Solver = Direct
Solver 1 :: Linear System Direct Method = Banded

Boundary Condition 1 :: Wave Flux 1 = 1
RUN


Solver 1 :: Reference Norm = Real 0.256636386851E-01
Solver 1 :: Linear System Solver = Direct
Solver 1 :: Linear System Direct Method = UMFPack

Boundary Condition 1 :: Wave Flux 1 = 2
RUN


Solver 1 :: Reference Norm = Real 0.641590967148E-01
Solver 1 :: Linear System Solver = Iterative
Solver 1 :: Linear System Iterative Method = CG

Boundary Condition 1 :: Wave Flux 1 = 5
RUN


Solver 1 :: Reference Norm = Real 0.769909160662E-01
Solver 1 :: Linear System Solver = Iterative
Solver 1 :: Linear System Iterative Method = CGS

Boundary Condition 1 :: Wave Flux 1 = 6
RUN


Solver 1 :: Reference Norm = Real 0.898227353788E-01
Solver 1 :: Linear System Solver = Iterative
Solver 1 :: Linear System Iterative Method = QMR

Boundary Condition 1 :: Wave Flux 1 = 7
RUN


Solver 1 :: Reference Norm = Real 0.102654554732
Solver 1 :: Linear System Solver = Iterative
Solver 1 :: Linear System Iterative Method = TFQMR

Boundary Condition 1 :: Wave Flux 1 = 8
RUN


Solver 1 :: Reference Norm = Real 0.115486374077
Solver 1 :: Linear System Solver = Iterative
Solver 1 :: Linear System Iterative Method = GMRES

Boundary Condition 1 :: Wave Flux 1 = 9
RUN


Solver 1 :: Reference Norm = Real 0.128318193405
Solver 1 :: Linear System Solver = Iterative
Solver 1 :: Linear System Iterative Method = BiCGStab

Boundary Condition 1 :: Wave Flux 1 = 10
RUN


Solver 1 :: Reference Norm = Real 0.141150012766
Solver 1 :: Linear System Solver = Iterative
Solver 1 :: Linear System Iterative Method = BiCGStab2

Boundary Condition 1 :: Wave Flux 1 = 11
RUN


Solver 1 :: Reference Norm = Real 0.15398183
Solver 1 :: Linear System Solver = Iterative
Solver 1 :: Linear System Iterative Method = BiCGStabL
Boundary Condition 1 :: Wave Flux 1 = 12
RUN

Solver 1 :: Reference Norm = Real 1.66813651E-01
Solver 1 :: Linear System Solver = Iterative
Solver 1 :: Linear System Iterative Method = idrs
Boundary Condition 1 :: Wave Flux 1 = 13
RUN

!End Of File
