! Test strain rate and Eigenvalues solvers                       

Check Keywords Warn

Header
  Mesh DB "." "mesh"
End

Simulation
  Coordinate System = Cartesian 2D
  Simulation Type = Steady State
  Steady State Max Iterations  = 1
  Output Intervals = 1
  Post File   = "carre2D.ep"
  Output File = "carre2D.result"
  max output level = 4
End  


Body 1
   Equation = 1
   Material = 1
   Body Force = 1
   Initial Condition = 1
End

Body Force 1
Flow BodyForce 1 = Real 0.0
Flow BodyForce 2 = Real 0.0
End


Material 1
  Density = Real 1.0
  Viscosity = Real 1.0
  Viscosity Model = String "power law"
  Viscosity Exponent = Real $1.0/3.0
  Critical Shear Rate = Real 1.0e-10
End

Initial Condition 1
  velocity 1 = real 0.0
  velocity 2 = real 0.0
  Pressure = real 0.0
End

Solver 1
   Equation = Navier-Stokes

   Linear System Solver = Direct
   Linear System Direct Method = umfpack

   Nonlinear System Max Iterations = 100
   Nonlinear System Convergence Tolerance  = 1.0e-6
   Nonlinear System Newton After Iterations = 5 
   Nonlinear System Newton After Tolerance = 1.0e-02
   Nonlinear System Relaxation Factor = 1.0
    
   Stabilization Method = String Bubbles
   Flow Model = Stokes
   Steady state Convergence tolerance = Real 1.0e-5

   Exported Variable 1 = Flow Solution Loads[Stress Vector:2 CEQ Residual:1] 
   Calculate Loads = Logical True
End

Solver 2
  Equation = "Eij"          
  Variable = -nooutput "Eij"     
  Variable DOFs = 1

  Exported Variable 1 = "StrainRate"
  Exported Variable 1 DOFs = 5

  Procedure = "ElmerIceSolvers" "ComputeStrainRate"
  Flow Solver Name = String "Flow Solution"
  StrainRate Variable Name = String "StrainRate"

  Linear System Solver = Direct         
  Linear System Direct Method = umfpack
End 

Solver 3
   Equation = "EigenSR"
   Variable = -nooutput dumy
   Variable DOFs = 1

   Procedure = "ElmerIceSolvers" "ComputeEigenValues"

   ! 3 Eigenvalues    
   Exported Variable 1 = "EigenSR"
   EigenValue Variable Name = String "EigenSR"
   Tensor Variable Name = String "StrainRate"
   Exported Variable 1 DOFS = 3

  ! Principal vectors (optional) 
   Exported Variable 2 = EigenVector1
   Exported Variable 2 DOFS = 3
   Exported Variable 3 = EigenVector2
   Exported Variable 3 DOFS =  3
   Exported Variable 4 = EigenVector3
   Exported Variable 4 DOFS = 3
End

Equation 1
    Active Solvers(3) = Integer 1 2 3
End

Boundary Condition 1
   Target Boundaries  = 1
   Velocity 2 = Real 0.0
End

Boundary Condition 2
   Target Boundaries = 2
End

Boundary Condition 3
    Target Boundaries  = 3
    Pressure 2 = Real 1.0  
End
 

! Periodic Left
Boundary Condition 4
  Target Boundaries = 4
  Velocity 1 = Real 0.0
End

Solver 1 :: Reference Norm = Real 3.65326623E-01
Solver 1 :: Reference Norm Tolerance = Real 1E-06
$fprintf( stderr, "TEST CASE 1\n");
RUN
$fprintf( stderr, "END TEST CASE 1: Target NRM=3.65326623E-01,EPS=1E-06\n" );
