! Test case for Poisson equation + conforming BCs.
!
! This uses elimination via a Perm vector.
!
! This has antiperiodic BCs that require PeriodicFlip to be determined. 
!
! This is transient.
!
! P.R. 22.5.2019

Check Keywords "Warn"

Header
  Mesh DB "." "square"
End

Simulation
  Max Output Level = 7
  Coordinate System = "Cartesian"
  Simulation Type = transient
  Steady State Max Iterations = 1

  Output Intervals(1) = 1
  Timestep Intervals(1) = 3
  Timestep Sizes(1) = 1.0
  Timestepping Method = bdf

!  Post File = case_anti.vtu
!  Mesh Levels = 4
End

Body 1
  Name = "Rest"
  Equation = 1
  Material = 1
End

Body 2
  Name = "Heat"
  Equation = 1
  Material = 1
  Body Force = 1
End

Material 1
  Name = "Ideal"
  Heat Conductivity = 1.0
  Density = 1.0
  Heat Capacity = 1.0
End


Equation 1
  Active Solvers(1) = 1 
End


Solver 1
  Equation = "HeatEq"

  Variable = "Temperature"
  Procedure = "HeatSolve" "HeatSolver"

  Linear System Solver = "Iterative"
  Linear System Preconditioning = none
  Linear System Residual Output = 10
  Linear System Max Iterations = 1000
  Linear System Iterative Method = BiCgStabl 
  Linear System Convergence Tolerance = 1.0e-10
  BicgStabl Polynomial Degree = 4

  Nonlinear System Consistent Norm = True

  Apply Conforming BCs = Logical True
End


Body Force 1
  Name = "Heating"
  Heat Source = 1.0
End

Boundary Condition 1
  Name = "MinY"
  Target Boundaries(1) = 1

  Conforming BC = 2
  Antisymmetric BC = Logical True
End
 
Boundary Condition 2
  Name = "MaxY"
  Target Boundaries(1) = 3
End


Boundary Condition 3
  Name = "MaxX"
  Target Boundaries(1) = 2

  Conforming BC = Integer 4
  Antisymmetric BC = Logical True
End

Boundary Condition 4
  Name = "MinX"
  Target Boundaries(1) = 4
End


Solver 1 :: Reference Norm = 8.42810519E-02


