! Test case for handles that make code simpler
! Test case is compared against legacy advection-diffusion equation
! This is a transient case.

Check Keywords Warn

Header
  Mesh DB "." "Step"
End

Simulation
  Max Output Level = 4
  Coordinate System = Cartesian
  Simulation Type = Transient
  Timestepping Method = BDF
  BDF Order = 2
  Timestep Sizes = 2.0
  Timestep Intervals = 10
  Output Intervals = 1
  Steady State Max Iterations = 1

!  Post File = "case.ep"
End

Body 1
  Equation = 1
  Material = 1
  Body Force = 1
End

Equation 1
  Active Solvers(2) = 1 2
End

Solver 1
  Equation = AdvDiff
  Variable = ConsA
  Variable DOFs = 1
  Procedure = "AdvectionDiffusion" "AdvectionDiffusionSolver"

  Linear System Solver = Iterative
  Linear System Iterative Method = BiCGStab
  Linear System Max Iterations = 200
  Linear System Convergence Tolerance = 1.0e-08
  Linear System Preconditioning = ILU1
  Linear System Residual Output = 20

  Nonlinear System Max Iterations = 1
  Nonlinear System Convergence Tolerance = 1.0e-4
  Nonlinear System Newton After Tolerance = 1.0e-3
  Nonlinear System Newton After Iterations = 10
  Nonlinear System Relaxation Factor = 1
  Steady State Convergence Tolerance = 1.0e-4
! Stabilize = False  ! this is default
  Bubbles = False

  Solver Timing = True
End

Solver 2
!  Exec Solver = never

  Equation = AdvDiffHandles
  Variable = ConsB
  Variable DOFs = 1
  Procedure = "./AdvDiffHandles" "AdvDiffSolver"

  Use Global Mass Matrix = True

  Linear System Solver = Iterative
  Linear System Iterative Method = BiCGStab
  Linear System Max Iterations = 200
  Linear System Convergence Tolerance = 1.0e-08
  Linear System Preconditioning = ILU1
  Linear System Residual Output = 20

  Nonlinear System Max Iterations = 1
  Nonlinear System Convergence Tolerance = 1.0e-4
  Nonlinear System Newton After Tolerance = 1.0e-3
  Nonlinear System Newton After Iterations = 10
  Nonlinear System Relaxation Factor = 1
  Steady State Convergence Tolerance = 1.0e-4
! Stabilize = False  ! this is default

  Solver Timing = True
End

Body Force 1 
  Name = "Source" 

! The constant MATC commands give an edge for the Handles version 
  ConsA Diffusion Source = Real 1.0
  ConsB Source = Real 1.0
End 

Material 1
  Density = 1.0

  ConsA Diffusivity = Real 1.0e-3

  ConsB Diffusivity = Real 1.0e-3
  ConsB Capacity = Real 0.0
  ConsB Density = Real 1.0
End


Boundary Condition 1
  Name = "BCs" 
  Target Boundaries = 1
  ConsA = Real 0.0
  ConsB = Real 0.0
End

$ fprintf( stderr, "TEST CASE 1\n" );
RUN
$ fprintf( stderr, "END TEST CASE 1, Target NRM=16.627084\n");

!End Of File

