! Just creates a variable on IP points and computes some values to it
! using the "update exported variables" and body force definitions. 
!
! This is a masked version of the variable.
! Initial conditions are set for the ip variable.
!
! P.R. 19.1.2018

Header
  CHECK KEYWORDS Warn
  Mesh DB "." "squares"
  Include Path ""
  Results Directory ""
End

Simulation
  Max Output Level = 7

  Coordinate System = "Cartesian"
  Coordinate Mapping(3) = 1 2 3

  Simulation Type = "Steady State"
  Steady State Max Iterations = 1
  Output Intervals = 1

  Post File = "case.vtu"
End

Constants
  Gravity(4) = 0 -1 0 9.82
  Stefan Boltzmann = 5.67e-08
End

Body 1
  Name = "BodyA"
  Body Force = 1
  Equation = 1
  Material = 1
  Initial Condition = 1
End

Body 2
  Name = "BodyB"
  Body Force = 2
  Equation = 1
  Material = 1
  Initial Condition = 1
End


Equation 1
  Name = "Equations"
  Active Solvers(2) = 1 2
End


Solver 1
  Equation = "Heat Equation"
  Variable = "Temperature"
  Linear System Solver = "Iterative"
  Linear System Iterative Method = "BiCGStab"
  Linear System Max Iterations = 1000
  Linear System Convergence Tolerance = 1.0e-08
  Linear System Abort Not Converged = True
  Linear System Preconditioning = "ILU0"
  Linear System Residual Output = 1
  Steady State Convergence Tolerance = 1.0e-05
  Stabilize = True
  Nonlinear System Convergence Tolerance = 1.0e-05
  Nonlinear System Max Iterations = 1
  Nonlinear System Newton After Iterations = 3
  Nonlinear System Newton After Tolerance = 1.0e-02
  Nonlinear System Relaxation Factor = 1.0

! These are used to create a variable 
  Exported Variable 1 = -ip "ip temperature"
  Exported Variable 2 = -dofs 3 -ip "ip coordinate"

! These can be used to toggle exported variable passive/active somewhere
! In effect the lenght of the variable will be smaller
  Exported Variable 1 Mask = String "body force: ip active"
  Exported Variable 2 Mask = String "ip active"

! This sets the "ip tempetature" after the solution
  Update Exported Variables = Logical True
End


Solver 2
  Procedure = "SaveData" "SaveScalars"
  Equation = "ShowScalars"

  Variable 1 = "Temperature"
  Operator 1 = max
  Variable 1 = Ip Temperature
  Variable 2 = Ip Coordinate 1
  Variable 3 = Ip Coordinate 2
  Variable 4 = Ip Coordinate 3

  Show Norm Index = 2
End


Material 1
  Name = "Material"
  Density = 1
  Heat Conductivity = 1.0
End
 

Initial Condition 1
  Name = "InitializeCoords"
  Ip Coordinate 1 = Equals "Coordinate 1"
  Ip Coordinate 2 = Equals "Coordinate 2"
End

Body Force 1
  Name = "BodyForceA"
  Ip Temperature = Variable "Temperature"
    Real MATC "tx"
  Ip Active = Logical True
End

Body Force 2
  Name = "BodyForce"
  Heat Source = 1

  Ip Temperature = Equals "Temperature"

! This flag determines where the related exported variables are active
  Ip Active = Logical False
End

Boundary Condition 1
  Name = "Sides"
  Target Boundaries(1) = 1 
  Temperature = 0
End


Solver 1 :: Reference Norm = 1.27320795E-02
Solver 2 :: Reference Norm = 9.78867513E-01
!End Of File
