Check Keywords "Warn"

Header
Mesh DB "." "shoebox_tets"
End

Simulation
  Max Output Level = 5

  Coordinate System = "Cartesian"
  Simulation Type = Steady
  Steady State Max Iterations = 1

  !Post File = vectorhelmholtz.vtu
  Output Intervals(1) = 1
End

Constants
!Permeability of Vacuum = Real 1
!Permittivity of Vacuum = Real 1
End

Body 1
  Equation = 1
  Material = 1
  ! Body Force = 1
  Initial Condition = 1
End

$ beta0=41.9332032192090
$ k0=52.3961255469564
$ kc=31.4159265358979 
$ w=2*pi*(2.5e9)
$ mu0=4e-7*pi

!Initial Condition 1
  ! Pre = Variable coordinate
  ! Real MATC "rand(1)"
  ! Eref_re 2 = Variable coordinate 1, coordinate 3
  !  Real MATC "-1.66782047593233*sin(tx(0)*pi*10)*(sin(beta0*tx(1)) - sin(-beta0*tx(1) + 2 * beta0*0.2))"
!End

Material 1
  Relative Permittivity = Real 1
  !Relative Permittivity im = Real 0
End

Equation 1
  Active Solvers(2) = 1 2
  Angular Frequency = Real $w
End

Solver 1
  Equation = "VectorHelmholtz"
  Use Piola Transform = Logical True
  Variable Output = False
  Procedure = "VectorHelmholtz" "VectorHelmholtzSolver"

  ! The following activates the use of a gauged A-V formulation:
  Element = "n:2 e:1"

  Linear System Symmetric = False
  Linear System Scaling = True
!  Linear System Row Equilibration = False

  !Linear System Use Hypre = Logical True
  !Linear System Use Trilinos = Logical True
  !Linear System Use Mumps = Logical True

  Linear System Solver = String "Iterative"
  !Linear System Solver = String "Direct"
  Linear System Iterative Method = String "bicgstabl"
  BiCGstabl polynomial degree = Integer 4
  
  Linear System Preconditioning Damp Coefficient = Real 0.0
  Linear System Preconditioning Damp Coefficient im = Real -1
  Mass-proportional Damping = True
  !Linear System Preconditioning = String "boomerAMG"
  !Linear System Preconditioning = String "parasails"
  !Linear System Preconditioning = String "vanka"
  !Linear System Preconditioning = String "None"
  !Linear System Preconditioning = String "diagonal"
  Linear System Preconditioning = String "ILU0"
  Linear System ILUT Tolerance = Real 3e-3
  Linear System Max Iterations = Integer 1000
  Linear System Convergence Tolerance = 1.0e-10

  linear system abort not converged = false

  Steady State Convergence Tolerance = 1e-09
  Linear System Residual Output = 1
  Calculate Loads = Logical True
  Calculate Energy Inner Product = Logical True
End

Solver 2
  Equation = "calcfields"

  Procedure = "VectorHelmholtz" "VectorHelmholtzCalcFields"

  ! When "Element = n:2 ..." is used, there seems to be a problem in
  ! saving nodal approximations. Disable this computation until fixed: 
  Calculate Nodal Fields = Logical False

  Calculate Elemental Fields = Logical True
  Calculate Magnetic Field Strength = Logical True
  Calculate Magnetic Flux Density = Logical True
  Calculate Poynting vector = Logical True
  !Calculate Div of Poynting Vector = Logical True
  Calculate Electric field = Logical True
  Calculate Energy Functional = Logical True

  Steady State Convergence Tolerance = 1
  Linear System Solver = "Iterative"
  Linear System Preconditioning = None
  Linear System Residual Output = 10
  Linear System Max Iterations = 5000
  Linear System Iterative Method = CG
  Linear System Convergence Tolerance = 1.0e-9
  !Exported Variable 1 = -dofs 3 Eref_re
End

Solver 3
  Equation = "SaveScalars"
  Procedure = "SaveData" "SaveScalars"
  FileName = "scalar_values.dat"
End

Solver 4
!  Exec Solver = never
  !Equation = VtuOutput
  Equation = "result output"
  Procedure = "ResultOutputSolve" "ResultOutputSolver"
  Output File Name = avgauged
  Vtu Format = Logical True
  Save Geometry Ids = True
  !GMSH Format = Logical True
  !Single Precision = Logical True
  !Save Bulk Only = True
End 

!Body Force 1
  !Current Density 1 = Real 
  !Current Density 2 = Variable Coordinate 3
  !Real MATC "1-10*tx"
  !Current Density = Real 0
  !Current Density 2 = Real 1e8
!End

Boundary Condition 1
  Target Boundaries(1) = 1
  !E re {e} 2 = Variable Coordinate 1
  !Real MATC "10*tx"

  Electric Robin Coefficient im = Real $ beta0
  !E re {e} 2 = Real 1

  Magnetic Boundary Load 2 = Variable Coordinate 1
    Real MATC "-2*beta0*k0/kc*sin(pi*tx/100e-3)"
  !Real MATC "-139.87*sin(pi*tx/100e-3)"
  !Real MATC "-1.1131e8*sin(pi*tx/100e-3)"
  !Real MATC "-2/mu0*beta0*k0/kc*sin(pi*tx/100e-3)"

  E re {n} 1 = Real 0.0
  E re {n} 2 = Real 0.0
  E im {n} 1 = Real 0.0
  E im {n} 2 = Real 0.0	
End

Boundary Condition 2
  Target Boundaries(5) = 2 3 4 5 6

  !E re {e} = Real 0
  !E im {e} = Real 0

  Electric Robin Coefficient = Real $ -474315.9900340191 
  Electric Robin Coefficient im = Real $ 474315.9900340191  

  E re {n} 1 = Real 0.0
  E re {n} 2 = Real 0.0
  E im {n} 1 = Real 0.0
  E im {n} 2 = Real 0.0	
End

Solver 1 :: Reference Norm = 6.30465961E-03
Solver 1 :: Reference Norm Tolerance = 1e-3
!Solver 2 :: Reference Norm = 2.32743791E-03
!Solver 2 :: Reference Norm Tolerance = 1e-3
