
!
! Instead of the E-formulation (waveguide.sif) the electric field E is expressed
! by using the A-V representation, which is activated by the command "Use Gauss
! Law = True". 
!

Check Keywords "Warn"

Header
Mesh DB "." "shoebox_tets"
End

Simulation
  Max Output Level = 5

  Coordinate System = "Cartesian"
  Simulation Type = Steady
  Steady State Max Iterations = 1

  !Post File = vectorhelmholtz.vtu
  Output Intervals(1) = 1
End

Constants
!Permeability of Vacuum = Real 1
!Permittivity of Vacuum = Real 1
End

Body 1
  Equation = 1
  Material = 1
  ! Body Force = 1
  Initial Condition = 1
End

$ beta0=41.9332032192090
$ k0=52.3961255469564
$ kc=31.4159265358979 
$ w=2*pi*(2.5e9)
$ mu0=4e-7*pi

Material 1
  Relative Permittivity = Real 1
  !Relative Permittivity im = Real 0
End

Equation 1
  Active Solvers(2) = 1 2
  Angular Frequency = Real $w
End

Solver 1
  Equation = "VectorHelmholtz"
  Use Piola Transform = Logical True
  Procedure = "VectorHelmholtz" "VectorHelmholtzSolver"

  Use Gauss Law = True
  Variable = E[E re:1 E im:1]

  Linear System Symmetric = False
  Linear System Scaling = True
  Linear System Row Equilibration = True

  !Linear System Use Hypre = Logical True
  !Linear System Use Trilinos = Logical True
  !Linear System Use Mumps = Logical True

  Linear System Solver = String "Iterative"
!  Linear System Solver = String "Direct"
  Linear System Iterative Method = String GCR !"bicgstabl"
  BiCGstabl polynomial degree = Integer 4
  
!  Linear System Preconditioning Damp Coefficient = Real 0.0
!  Linear System Preconditioning Damp Coefficient im = Real -1
!  Mass-proportional Damping = True
  !Linear System Preconditioning = String "boomerAMG"
  !Linear System Preconditioning = String "parasails"
  !Linear System Preconditioning = String "vanka"
  !Linear System Preconditioning = String "None"
  !Linear System Preconditioning = String "diagonal"
  Linear System Preconditioning = String "ILUT"
  Linear System ILUT Tolerance = Real 3e-3
  Linear System Max Iterations = Integer 4000
  Linear System Convergence Tolerance = 1.0e-7

  linear system abort not converged = false

  Steady State Convergence Tolerance = 1e-09
  Linear System Residual Output = 10
  Calculate Loads = Logical True
  Calculate Energy Inner Product = Logical True
End

Solver 2
  Equation = "calcfields"

  Procedure = "VectorHelmholtz" "VectorHelmholtzCalcFields"

  Calculate Elemental Fields = Logical True
  Calculate Magnetic Field Strength = Logical True
  Calculate Magnetic Flux Density = Logical True
  Calculate Poynting vector = Logical True
  !Calculate Div of Poynting Vector = Logical True
  Calculate Electric field = Logical True
  Calculate Energy Functional = Logical True

  Steady State Convergence Tolerance = 1
  Linear System Solver = "Iterative"
  Linear System Preconditioning = None
  Linear System Residual Output = 10
  Linear System Max Iterations = 5000
  Linear System Iterative Method = CG
  Linear System Convergence Tolerance = 1.0e-9
  !Exported Variable 1 = -dofs 3 Eref_re
End

Solver 3
  Equation = "SaveScalars"
  Procedure = "SaveData" "SaveScalars"
  FileName = "scalar_values.dat"
End

Solver 4
!  Exec Solver = never
  !Equation = VtuOutput
  Equation = "result output"
  Procedure = "ResultOutputSolve" "ResultOutputSolver"
  Output File Name = av
  Vtu Format = Logical True
  !GMSH Format = Logical True
  !Single Precision = Logical True
  !Save Bulk Only = True
End 

!Body Force 1
  !Current Density 1 = Real 
  !Current Density 2 = Variable Coordinate 3
  !Real MATC "1-10*tx"
  !Current Density = Real 0
  !Current Density 2 = Real 1e8
!End

Boundary Condition 1
  Target Boundaries(1) = 1

  Electric Robin Coefficient im = Real $ beta0
  Magnetic Boundary Load 2 = Variable Coordinate 1
    Real MATC "-2*beta0*k0/kc*sin(pi*tx/100e-3)"

! Now an additional condition for the scalar variable is needed, since
! the Gauss law is used. Assuming some source impedance seems to be
! essential for stability.
!  -------------------------------------------------------
  Electric Transfer Coefficient Im = $ -w/50e+6
  Electric Current Density = 0
  Electric Current Density Im = 0
End

Boundary Condition 2
  Target Boundaries(5) = 2 3 4 5 6

  Electric Robin Coefficient = Real $ -474315.9900340191 
  Electric Robin Coefficient im = Real $ 474315.9900340191

!  A) The following commands could be used to give a suitable
!     "Electric Robin Coefficient" for a good conductor:
!  -------------------------------------------------------
!  Good Conductor BC = True
!  Layer Relative Reluctivity = 1.0
!  Layer Electric Conductivity = 1.0e+7

!  B) The following commands could be used to create a suitable
!     layer BC so that the good conductor conditions were
!     obtained:
!  -------------------------------------------------------
!  Layer Thickness = 3.18309886184286815E-006
!  Layer Relative Reluctivity = 1.0
!  Layer Electric Conductivity = 5.0e+6
!  Layer Electric Conductivity Im = 5.0e+6	  

  ! A small "Electric Transfer Coefficient" provides a way to approximate
  ! the condition that there is no surface charge:
  ! -------------------------------------------------------
  Electric Transfer Coefficient Im = $ -w/50e+6
  Electric Current Density = 0
  Electric Current Density Im = 0  
End


Solver 1 :: Reference Norm = 8.88514461E-01
Solver 1 :: Reference Norm Tolerance = 1e-3
Solver 2 :: Reference Norm = 2.32743791E-03
Solver 2 :: Reference Norm Tolerance = 1e-3
