! This is a test case variation for restart
! We read here in results for field "TempA" and apply it to "TempB"
! while reading it in. This way no dummy initial condition section
! is required.
!
! We also test a feature "Restart Time Zero" that avoids setting the
! time again when restarting.
!
! P.R. 7.10.21

Header
  CHECK KEYWORDS Warn
  Mesh DB "." "angle"
  Include Path ""
  Results Directory ""
End

Simulation
  Max Output Level = 5

  Coordinate System = "Cartesian"
  Coordinate Mapping(3) = 1 2 3

  Simulation Type = "Transient"
  Steady State Max Iterations = 1
  Output Intervals = 1

  Timestepping Method = bdf
  Bdf Order = 1
  Timestep intervals(1) = 10
  Timestep Sizes(1) = 1
  Output Intervals(1) = 1
 
!  Post File = "case.vtu"

  Restart File = ../init.result
  Restart Position = 0
  Restart Variable 1 = TempA
  Target Variable 1 = String "TempB"
  Restart Variable 2 = TempA Flux 1
  Target Variable 2 = String "TestField"
  Restart Time Ignore = Logical True
End

Constants
  Gravity(4) = 0 -1 0 9.82
  Stefan Boltzmann = 5.67e-08
End

Body 1
  Name = "Body"
  Body Force = 1
  Equation = 1
  Material = 1
End

Equation 1
  Name = "Equations"
  Active Solvers(2) = 1 2
End

Solver 1
  Equation = "Heat Equation"
  Variable = "TempB"
  Linear System Solver = "Iterative"
  Linear System Iterative Method = "BiCGStab"
  Linear System Max Iterations = 1000
  Linear System Convergence Tolerance = 1.0e-08
  Linear System Abort Not Converged = True
  Linear System Preconditioning = "ILU0"
  Linear System Residual Output = 10
  Steady State Convergence Tolerance = 1.0e-05

  Nonlinear System Max Iterations = 1
End


Solver 2
  Equation = ComputeFlux
  Procedure = "FluxSolver" "FluxSolver"

  Calculate Flux = True
  Target Variable = TempB
  Flux Coefficient = "Heat Conductivity"

! these are taken care by the defaults
!  Linear System Solver = "Iterative"
!  Linear System Iterative Method = "cg"
!  Linear System Preconditioning = None
!  Linear System Residual Output = 10
!  Linear System Max Iterations = Integer 500
!  Linear System Convergence Tolerance = 1.0e-10
End

Solver 3
  Equation = TestInt
  Procedure = "SaveData" "SaveScalars"

  Variable 1 = time
  Variable 2 = testfield
  Operator 2 = max

  Show Norm Index = 1

!  Filename = f.dat
End 

Material 1
  Name = "Material"
  Density = 1
  Heat Conductivity = 1
  Heat Capacity = 100
End

Body Force 1
  Name = "BodyForce"
  Heat Source = 1
End

Boundary Condition 1
  Name = "Constraint"
  Target Boundaries(1) = 1 
  TempB = Real 0
End

Solver 1 :: Reference Norm = 6.61498204E-02
Solver 2 :: Reference Norm = 4.96125516E-01
Solver 3 :: Reference Norm = 1.000000000000E+001
!End Of File
