Header
  CHECK KEYWORDS Warn
  Mesh DB "." "angle"
  Include Path ""
  Results Directory ""
End

Simulation
  Max Output Level = 5

  Coordinate System = "Cartesian"
  Coordinate Mapping(3) = 1 2 3

  Simulation Type = "Transient"
  Steady State Max Iterations = 1
  Output Intervals = 1

  Timestepping Method = bdf
  Bdf Order = 1
  Timestep intervals(1) = 10 ! 20 for reference
  Timestep Sizes(1) = 1.0
  Output Intervals(1) = 4 ! always saves the last too!
 
!  Post File = "init.vtu"

  Output File = ../init.result
  Output Global Variables = Logical True
  Binary Output = Logical True
End

Constants
  Gravity(4) = 0 -1 0 9.82
  Stefan Boltzmann = 5.67e-08
End

Body 1
  Name = "Body"
  Body Force = 1
  Equation = 1
  Material = 1
End

Equation 1
  Name = "Equations"
  Active Solvers(2) = 1 2
End

Solver 1
  Equation = "Heat Equation"
  Variable = "TempA"
  Linear System Solver = "Iterative"
  Linear System Iterative Method = "BiCGStab"
  Linear System Max Iterations = 1000
  Linear System Convergence Tolerance = 1.0e-08
  Linear System Abort Not Converged = True
  Linear System Preconditioning = "ILU0"
  Linear System Residual Output = 10
  Steady State Convergence Tolerance = 1.0e-05

  Nonlinear System Max Iterations = 1
End


Solver 2
  Equation = ComputeFlux
  Procedure = "FluxSolver" "FluxSolver"

  Calculate Flux = Logical True
  Target Variable = String TempA
  Flux Coefficient = String "Heat Conductivity"

! these are taken care by the defaults
!  Linear System Solver = "Iterative"
!  Linear System Iterative Method = "cg"
!  Linear System Preconditioning = None
!  Linear System Residual Output = 10
!  Linear System Max Iterations = Integer 500
!  Linear System Convergence Tolerance = 1.0e-10
End


Material 1
  Name = "Material"
  Density = 1
  Heat Conductivity = 1
  Heat Capacity = 100
End

Body Force 1
  Name = "BodyForce"
  Heat Source = 1
End

Boundary Condition 1
  Name = "Constraint"
  Target Boundaries(1) = 1 
  TempA = Real 0
End

Solver 1 :: Reference Norm = 4.80972483E-02
Solver 2 :: Reference Norm = 2.95600898E-01
!End Of File
