!-----------------------------------------------------------------
! Test case for 3D nonconforming mortar elements.
! 
! This case includes 4-fold symmetry in the rotations and 
! some skew for both stator and rotor.
!
! This is a variation of the test case using generic version of the 
! mortar projector for interfaces meshes in level.
!
! P.R. / 26.11.2014
!----------------------------------------------------------------- 

$omega=20.0
$skew=5.0

Header
  CHECK KEYWORDS Warn
  Mesh DB "." "mortar3d"
  Include Path ""
  Results Directory ""
End
   
Simulation
  Max Output Level = 5
  Coordinate System = Cartesian
  Coordinate Mapping(3) = 1 2 3
  Simulation Type = Transient
  Steady State Max Iterations = 1
  Output Intervals = 1
  
  Timestepping Method = BDF
  BDF Order = 1
  Timestep Sizes = 1.0
  Timestep Intervals = 3
  Output Intervals = 1

  Simulation Timing = Logical True
End  

Constants
  Gravity(4) = 0 -1 0 9.82
  Stefan Boltzmann = 5.67e-08
  Permittivity of Vacuum = 8.8542e-12
  Boltzmann Constant = 1.3807e-23
  Unit Charge = 1.602e-19
End

Body 1
  Target Bodies(1) = 3
  Name = "Stator"
  Equation = 1
  Material = 1
  Body Force = 1
  Initial Condition = 1
End

Body 2
  Target Bodies(1) = 1
  Name = "Rotor-Hot"
  Equation = 1
  Material = 1
  Body Force = 2
  Initial Condition = 1
End

Body 3
  Target Bodies(1) = 2
  Name = "Rotor-Cold"
  Equation = 1
  Material = 1
  Body Force = 3
  Initial Condition = 1
End


Solver 1
  Exec Solver = Before Timestep
  Equation = MeshDeform
  Procedure = "RigidMeshMapper" "RigidMeshMapper"
  Cumulative Displacements = Logical False
  Translate Before Rotate = Logical True
End


Solver 2
  Equation = Heat Equation
  Procedure = "HeatSolve" "HeatSolver"
  Variable = -dofs 1 Temperature
  Exec Solver = Always
  Stabilize = True
  Bubbles = False
  Lumped Mass Matrix = False
  Optimize Bandwidth = True
  Steady State Convergence Tolerance = 1.0e-5
  Nonlinear System Convergence Tolerance = 1.0e-9
  Nonlinear System Max Iterations = 1
  Nonlinear System Newton After Iterations = 3
  Nonlinear System Newton After Tolerance = 1.0e-3

  Nonlinear System Relaxation Factor = 1.0  
  Linear System Solver = Iterative
  Linear System Iterative Method = BiCGStabl
  Linear System Max Iterations = 5000
  Linear System Convergence Tolerance = 1.0e-9
  Linear System Preconditioning = ILU0
  Linear System ILUT Tolerance = 1.0e-3
  Linear System Abort Not Converged = False
  Linear System Residual Output = 20
  Linear System Precondition Recompute = 1
 
  Optimize Bandwidth = False

  Apply Mortar BCs = Logical True
  Export Lagrange Multiplier = Logical True

  Linear System Timing = Logical True
  Solver Timing = Logical True
  Linear System Timing Cumulative = Logical True
  Solver Timing Cumulative = Logical True
End

Solver 3
! Settings mainly for timing and verification
  Exec Solver = never

  Equation = SaveScalars
  Procedure = "SaveData" "SaveScalars"

  Filename = scalars.dat

  Variable 1 = Temperature
  Operator 1 = dofs
  Operator 2 = partitions
  Operator 3 = min
  Operator 4 = max
  Operator 5 = norm
  Operator 6 = cpu time
  Operator 7 = wall time

!  File Append = Logical True

! Reduce just to one file when parallel
  Parallel Reduce = Logical True
  Default Parallel Operator = String max
  Parallel Operator 1 = String sum
End 


Solver 4
  Exec Solver = never

  Equation = "SaveLine"
  Procedure = "SaveData" "SaveLine"
  Filename = line.dat

! Put all data in the same file
!  File Append = True

! Number the files [1,2,...] starting from 1st free number
  Filename Numbering = True

  Coordinate Transformation = String "cartesian to cylindrical"
  Coordinate Transformation Use Degrees = Logical True
  Polyline Coordinates(2,3) = 0.99 -360.0 0.5 0.99 360.0 0.99
End


Solver 5
!  Exec Solver = never
  Equation = VtuOutput
  Procedure = "ResultOutputSolve" "ResultOutputSolver"
  Output File Name = case
  Vtu Format = True
  Single Precision = True
End 

Equation 1
  Name = "Heat"
  Active Solvers(1) = 2
End

Material 1
  Name = "Ideal"
  Heat Conductivity = 1
  Heat Capacity = 1
  Density = 1
End

Body Force 1
  Name = "MoveToLeft"
  Mesh Translate 1 = -4.0
  Mesh Rotate 3 = Variable Coordinate 3 
    Real MATC "0.0031474+0.5*(1-tx)*skew"

! This is one way to make the mesh nonconforming in z
!  Mesh Scale 3 = 0.8
End

Body Force 2 
  Name = "Hot Move"
  Heat Source = 100.0
  Mesh Translate 3 = Real 0.1
  Mesh Rotate 3 = Variable time, Coordinate 3 
    Real MATC "omega*tx(0)+skew*tx(1)"

! This is another way to make the mesh nonconforming in z
! Mesh Translate 3 = Real 0.25
End 

Body Force 3
  Name = "Cold Move"
  Heat Source = -100.0
  Mesh Translate 3 = Real 0.1
  Mesh Rotate 3 = Variable time, Coordinate 3 
    Real MATC "omega*tx(0)+skew*tx(1)"

! Mesh Translate 3 = Real 0.25
End 

Boundary Condition 1
  Target Boundaries(2) = 8 9
  Name = "Ambient"
  Temperature = 0
End

Boundary Condition 2
  Target Boundaries(1) = 6
  Name = "Mortar Outside"
End

Boundary Condition 3
  Target Boundaries(2) = 1 2
  Name = "Mortar Inside"

  Mortar BC =  Integer 2
  Rotational Projector = Logical True

! Because there is skew on both sides the code cannot 
! decide the periodicity from the interface mesh directly. 
  Rotational Projector Periods = Integer 4

  Level Projector = Logical True
  Level Projector Generic = Logical True
  
!  Save Projector = Logical True
!  Level Projector Save Element Index = Integer 1
End

Boundary Condition 4
  Name = "Periodic Rotor Master"
  Target Boundaries(1) = 4

  Mortar BC =  Integer 5
  Radial Projector = Logical True
  Level Projector = Logical True
  Level Projector Generic = Logical True
End

Boundary Condition 5
  Name = "Periodic Rotor Target"
  Target Boundaries(1) = 3
End

Boundary Condition 6
  Name = "Periodic Stator Master"
  Target Boundaries(1) = 10

  Mortar BC =  Integer 7
  Radial Projector = Logical True
  Level Projector = Logical True
  Level Projector Generic = Logical True
End

Boundary Condition 7
  Name = "Periodic Stator Target"
  Target Boundaries(1) = 7
End

Boundary Condition 8
  Target Boundaries(1) = 5
  Name = "DummyBC"
End 


Solver 2 :: Reference Norm = 7.22541711E+00
Solver 2 :: Reference Norm Tolerance = 1.0e-4
