Header
  CHECK KEYWORDS Warn
  Mesh DB "." "box"
  Include Path ""
  Results Directory ""
End

Simulation
  Max Output Level = 5
  Coordinate System = "Cartesian 2D"
  Coordinate Mapping(3) = 1 2 3
  Simulation Type = "Steady State"
  Steady State Max Iterations = 1
  Output Intervals = 1
!  Post File = "data.ep"
End

Constants
  Gravity(4) = 0 -1 0 9.82
  Stefan Boltzmann = 5.67e-08
End

Body 1
  Name = "Body1"
  Body Force = 1
  Equation = 1
  Material = 1
End

Equation 1
  Name = "Equation1"
  Heat Equation = True
End

Solver 1
  Equation = "Heat Equation"
  Variable = "Temperature"
  Variable Dofs = 1
  Linear System Solver = "Direct"
  Linear System Iterative Method = "BiCGStab"
  Linear System Max Iterations = 350
  Linear System Convergence Tolerance = 1.0e-08
  Linear System Abort Not Converged = True
  Linear System Preconditioning = "ILU0"
  Linear System Residual Output = 1
  Steady State Convergence Tolerance = 1.0e-05
  Stabilize = True
  Nonlinear System Convergence Tolerance = 1.0e-05
  Nonlinear System Max Iterations = 1
  Nonlinear System Newton After Iterations = 3
  Nonlinear System Newton After Tolerance = 1.0e-02
  Nonlinear System Relaxation Factor = 1.0
End

Solver 2 
  Exec Solver = before all 
!never
  Equation = "MapCoordinate"
  Procedure = "StructuredMeshMapper" "StructuredMeshMapper"
  Active Coordinate = Integer 2

!  Mapping Mask Variable = String "Temperature"
!  Bottom Surface Level = Real -1.0
  
End 

Material 1
  Name = "Material1"
  Density = 1
  Heat Conductivity = 1
End

Body Force 1
  Name = "BodyForce1"
  Heat Source = 1
End

Boundary Condition 1
  Name = "bottom"
  Target Boundaries = 1 
  Bottom Surface = Variable "Coordinate 1"
     Real MATC "0.1*cos(5*tx)"
  Temperature = 0
End

Boundary Condition 2
  Name = "right"
  Target Boundaries = 2 
  Temperature = 0
End

Boundary Condition 3
  Name = "top"
  Top Surface = Variable "Coordinate 1"
    Real MATC "1+0.1*sin(5*tx)"
  Target Boundaries = 3 
  Temperature = 0
End

Boundary Condition 4
  Name = "left"
  Target Boundaries = 4 
  Temperature = 0
End

Solver 1 :: Reference Norm = Real 0.07352857410943443
RUN
!End Of File
