Check Keywords Warn

Header
  Mesh DB "." "plates"
End

Simulation
  Max Output Level = 5
  Coordinate System = Cartesian 3D
  Simulation Type = Steady State
  Steady State Max Iterations = 1
!  Post File = "case.ep"
End

Constants
!  Permittivity Of Vacuum = 8.8542e-12
!  This one is changed to one to allow easier verification
  Permittivity Of Vacuum = 1.0
End

Body 1
  Equation = 1
  Material = 1
End

Equation 1
  Active Solvers(2) = 1 2
  Calculate Electric Energy = True
End

Solver 1
  Equation = Stat Elec Solver
  Variable = Potential
  Variable DOFs = 1
  Procedure = "StatElecSolve" "StatElecSolver"
  Calculate Electric Field = False
  Calculate Electric Flux = False
  Calculate Capacitance Matrix = True
  Potential Difference = 1.0e6
  Linear System Solver = Iterative
  Linear System Iterative Method = BiCGStab
  Linear System Max Iterations = 200
  Linear System Convergence Tolerance = 1.0e-07
  Linear System Preconditioning = ILU1
  Linear System ILUT Tolerance = 1.0e-03
  Nonlinear System Max Iterations = 1
  Nonlinear System Convergence Tolerance = 1.0e-4
  Nonlinear System Newton After Tolerance = 1.0e-3
  Nonlinear System Newton After Iterations = 10
  Nonlinear System Relaxation Factor = 1
  Steady State Convergence Tolerance = 1.0e-4
End

Material 1
  Relative Permittivity = 1
End

Boundary Condition 1
  Target Boundaries = 1
  Capacitance Body = 0
End

Boundary Condition 2
  Target Boundaries = 2
  Capacitance Body = 1
End

Boundary Condition 3
  Target Boundaries = 3
  Capacitance Body = 2
End

Boundary Condition 4
  Target Boundaries = 4
  Capacitance Body = 3
End

Boundary Condition 5
  Target Boundaries = 5
  Capacitance Body = 4
End

Boundary Condition 6
  Target Boundaries = 6
  Capacitance Body = 5
End

Solver 1 :: Reference Norm = Real 0.27012653
RUN

!End Of File

