Header
  CHECK KEYWORDS Warn
  Mesh DB "." "mesh"
  Include Path ""
  Results Directory ""
End

Simulation
  Max Output Level = 5
  Coordinate System = Cartesian
  Coordinate Mapping(3) = 1 2 3
  Simulation Type = Steady state
  Steady State Max Iterations = 100
  Output Intervals = 1
  Timestepping Method = BDF
  BDF Order = 1
!  Post File = skeleton.ep
End

Constants
  Gravity(4) = 0 -1 0 9.82
  Stefan Boltzmann = 5.67e-08
  Permittivity of Vacuum = 8.8542e-12
End

Body 1
  Target Bodies(1) = 1
  Name = Body 1
  Equation = 1
  Material = 1
End

Solver 1
  Equation = Navier-Stokes
  Procedure = "FlowSolve" "FlowSolver"
  Variable = Flow Solution[Velocity:2 Pressure:1]
  Exec Solver = Always
  Stabilize = True
  Bubbles = False
  Lumped Mass Matrix = False
  Optimize Bandwidth = True
  Steady State Convergence Tolerance = 1.0e-5
  Nonlinear System Convergence Tolerance = 1.0e-8
  Nonlinear System Max Iterations = 1
  Nonlinear System Newton After Iterations = 3
  Nonlinear System Newton After Tolerance = 1.0e-3
  Nonlinear System Relaxation Factor = 1
  Linear System Solver = Iterative
  Linear System Iterative Method = BiCGStab
  Linear System Max Iterations = 500
  Linear System Convergence Tolerance = 1.0e-8
  Linear System Preconditioning = ILU0
  Linear System ILUT Tolerance = 1.0e-3
  Linear System Abort Not Converged = False
  Linear System Residual Output = 1
  Linear System Precondition Recompute = 1
End

Solver 2
  Equation = Heat Equation
  Procedure = "HeatSolve" "HeatSolver"
  Variable = -dofs 1 Temperature
  Exec Solver = Always
  Stabilize = True
  Bubbles = False
  Lumped Mass Matrix = False
  Optimize Bandwidth = True
  Steady State Convergence Tolerance = 1.0e-5
  Nonlinear System Convergence Tolerance = 1.0e-8
  Nonlinear System Max Iterations = 1
  Nonlinear System Newton After Iterations = 3
  Nonlinear System Newton After Tolerance = 1.0e-3
  Nonlinear System Relaxation Factor = 1
  Linear System Solver = Iterative
  Linear System Iterative Method = BiCGStab
  Linear System Max Iterations = 500
  Linear System Convergence Tolerance = 1.0e-8
  Linear System Preconditioning = ILU0
  Linear System ILUT Tolerance = 1.0e-3
  Linear System Abort Not Converged = False
  Linear System Residual Output = 1
  Linear System Precondition Recompute = 1
End

Equation 1
  Name = Equation 1
  Convection = Computed
  Active Solvers(2) = 1 2
End

Material 1
  Name = Material 1

  Reference Temperature = 0
  Heat Conductivity = 1

  Heat Capacity = 1000
  Density = 1
  Viscosity = 0.1
  Compressibility Model = Incompressible
End

Boundary Condition 1
  Target Boundaries(1) = 1
  Name = right
  Noslip wall BC = True
  Temperature = 1
End

Boundary Condition 2
  Target Boundaries(1) = 2
  Name = bottom
  Noslip wall BC = True
End

Boundary Condition 3
  Target Boundaries(1) = 3
  Name = top
  Velocity 2 = 0
  Surface Tension Coefficient = 1
  Surface Tension Expansion Coefficient = 1e-4
End

Boundary Condition 4
  Target Boundaries(1) = 4
  Name = left
  Temperature = -1
  Noslip wall BC = True
End

Solver 2 :: Reference Norm = Real 0.63245486
RUN
!End Of File
