
Check Keywords "Warn"

Header
  Mesh DB "." "L"
End

Simulation
  Max Output Level = 5
  Coordinate System = Cartesian 3D
  Simulation Type = Steady
  Output Intervals = 1
  Steady State Max Iterations = 1
End

Body 1
  Equation = 1
  Material = 1
!  Body Force = 1
End

Material 1
 Poisson Ratio = Real 0.3
 Youngs Modulus = Real 90.0e+9
 Shell Thickness = Real 1.0e-1
 Density = 1.0e3
End

!Body Force 1 
!  Normal Pressure = Real 0.0
!End

Equation 1 :: Active Solvers(1) = 1

Solver 1
  Equation = "Shell equations"
  Procedure = "ShellSolver" "ShellSolver"

  Variable = U
  Variable DOFs = 6

  Drilling DOFs = True
  Drilling Stabilization Parameter = 0.5

  Large Deflection = False
  Displace Mesh = False

  Linear System Solver = direct !"Iterative"
  Linear System Preconditioning = ILU2
  Linear System Max Iterations = 1000
  Linear System Convergence Tolerance = 1e-11
  Linear System Iterative Method = GCR
  Linear System GCR Restart = 200
  Linear System Abort Not Converged = False
  Steady State Convergence Tolerance = 1e-09

  Eigen Analysis = True
  Eigen System Values = 10
  Eigen System Convergence Tolerance = Real 1.0e-6
  Eigen System Select = Smallest Magnitude
End

Solver 2
  ! Exec Solver = never

  Equation = "ResultOutput"
  Procedure = "ResultOutputSolve" "ResultOutputSolver"
  Output File Name = "L_eigen"
  Output Format = "vtu"

  Eigen Analysis = True
  Show Variables = Logical True
!  Active Eigenmodes = 5
End

Solver 3
  Equation = "SaveScalars"
!  Filename = f.dat

  Procedure = "SaveData" "SaveScalars"
  Save EigenValues = Logical True
  !
  ! Pick the fourth eigenvalue:
  !
  Show Norm Index = 4
End

Boundary Condition 1
  Target Boundaries(1) = 4
  U 1 = Real 0
  U 2 = Real 0
  U 3 = Real 0
  U 4 = Real 0
  U 5 = Real 0
  U 6 = Real 0
End


Solver 3 :: Reference Norm = Real 5.222013E+04
!Solver 3 :: Reference Norm Tolerance = Real 1.0e-5
