!--------------------------------------------------------------------
! Test case for normalizing keyword by the weight of the entity where
! the keyword is given. This test for Boundary Condition section. 
! P.R. / 25.11.2014
!--------------------------------------------------------------------

Header
  CHECK KEYWORDS Warn
  Mesh DB "." "angle"
  Include Path ""
  Results Directory ""
End

Simulation
  Max Output Level = 5
  Coordinate System = "Cartesian"
  Coordinate Mapping(3) = 1 2 3
  Simulation Type = "Steady State"
  Steady State Max Iterations = 1
  Output Intervals = 1
  Post File = "case.vtu"
End

Constants
  Gravity(4) = 0 -1 0 9.82
  Stefan Boltzmann = 5.67e-08
End

Body 1
  Name = "Body"
  Body Force = 1
  Equation = 1
  Material = 1
End

Equation 1
  Name = "Equations"
  Active Solvers(1) = 1 
End

Solver 1
  Exec Solver = "Always"
  Equation = "Heat Equation"
  Variable = "Temperature"
  Variable Dofs = 1
  Linear System Solver = "Iterative"
  Linear System Iterative Method = "BiCGStab"
  Linear System Max Iterations = 350
  Linear System Convergence Tolerance = 1.0e-08
  Linear System Abort Not Converged = True
  Linear System Preconditioning = "ILU0"
  Linear System Residual Output = 1
  Steady State Convergence Tolerance = 1.0e-05
  Stabilize = True
  Nonlinear System Convergence Tolerance = 1.0e-05
  Nonlinear System Max Iterations = 10
  Nonlinear System Newton After Iterations = 3
  Nonlinear System Newton After Tolerance = 1.0e-02
  Nonlinear System Relaxation Factor = 1.0
End


Solver 2
  Equation = SaveScalars
  Procedure = "SaveData" "SaveScalars"

  Variable 1 = Temperature 
  Operator 1 = min
  Operator 2 = max
!  Filename = f.dat
End


Material 1
  Name = "Material"
  Density = 1
  Heat Conductivity = 1
End

Body Force 1
  Name = "BodyForce"
  Heat Source = 1
End

Boundary Condition 1
  Name = "Down"
  Target Boundaries(1) = 1 
  Temperature = 0.0
End

Boundary Condition 2
  Name = "Right"
  Target Boundaries(1) = 2 

  Heat Flux = 1.0
! This together with the previous causes a division 
! by the volume (in 2D angle equal to 2). 
  Heat Flux Normalize by Area = Logical True
End

Boundary Condition 3
  Name = "Up"
  Target Boundaries(1) = 3 
End

Boundary Condition 4
  Name = "Left"
  Target Boundaries(1) = 4 
End

Solver 1 :: Reference Norm = Real 1.5355156
RUN
!End Of File
