!# This is similar to the previous except a non-trivial source term is introduced. Basically this
!# is linear but treting it explicitely creates a nasty feedback that is treated with a nonlinear
!# solver with linesearch using the Armijo-Goldstein criterion.

Header
  CHECK KEYWORDS Warn
  Mesh DB "." "angle"
  Include Path ""
  Results Directory ""
End

Simulation
!  Max Output Level = 5
  Coordinate System = "Cartesian"
  Coordinate Mapping(3) = 1 2 3

  Simulation Type = "Steady State"
  Steady State Max Iterations = 1
  Steady State Min Iterations = 1
  Output Intervals = 1

!  Post File = "case.ep"
End

Constants
  Gravity(4) = 0 -1 0 9.82
  Stefan Boltzmann = 5.67e-08
End

Body 1
  Name = "Body1"
  Equation = 1
  Material = 1
  Body Force = 1
End

Body 2
  Name = "Body2"
  Equation = 1
  Material = 1
  Body Force = 1
End

Equation 1
  Name = "Equation1"
  Active Solvers(1) = 1
End


Solver 1
  Coupled Solver = Logical True

  Equation = "HeatEq"

  Variable = "Temp"
  Procedure = "HeatSolve" "HeatSolver"

  Steady State Convergence Tolerance = 1.0e-05
  Nonlinear System Relaxation Factor = Real 1.0
  Nonlinear System Max Iterations = Integer 100
  Nonlinear System Max Stepsize Tests = Integer 30
  Nonlinear System Convergence Tolerance = Real 1.0e-6

  Linear System Solver = "Iterative"
  Linear System Iterative Method = bicgstab
  Linear System Convergence Tolerance = 1.0e-8
  Linear System Max Iterations = 500
  Linear System Preconditioning = ILU1

  Nonlinear System Linesearch = Logical True
  Nonlinear System Linesearch Iterations = Integer 30
  Nonlinear System Linesearch Factor = Real 0.5
  Nonlinear System Linesearch Limit = Real 0.5
End  

Solver 2
  Exec Solver = never

  Procedure = "SaveData" "SaveScalars"
  Filename = f.dat
  Variable 1 = Temp
  Operator 1 = min
  Variable 2 = Temp
  Operator 2 = max
End 

Body Force 1
  Heat Source = Variable Temp
    Real MATC "1.0-20*tx"
End 

Material 1
  Name = "Material1"

  Heat Conductivity = 1.0
  Density = 1.0
End


Boundary Condition 1
  Name = "BCs"
  Target Boundaries(2) = 1 2
  Temp = Real 0
End


Solver 1 :: Reference Norm = Real 0.26405675E-01
RUN



