Header
  Mesh DB "." "diffuser"
End

Simulation
  Coordinate System = Cartesian 2D
  Max Output Level = 5

  Simulation Type = Steady
  Steady State Max Iterations  = 500

!  Post File = "channel.ep"
! Output File = "channel.dat"
! Output Intervals = 100
  Restart File = channel.dat
  Restart Position = 0
End


Body 1
  Name  = "Flow"
  Equation  = 1
  Material  = 1
  Initial Condition = 1
End


Initial Condition 1
  Kinetic Energy = Variable Coordinate 2
   Real MATC "4*(1-(2*((tx-0.4699)/0.127-0.5))^2)"

  Kinetic Dissipation = Variable Coordinate 2
   Real MATC "40*(1-(2*((tx-0.4699)/0.127-0.5))^2)+10"

  V2 = Variable Coordinate 2
   Real MATC "2*(1-(2*((tx-0.4699)/0.127-0.5))^2)"

  F = Variable Coordinate 2
   Real MATC "2*(1-(2*((tx-0.4699)/0.127-0.5))^2)"

  Velocity 1 = Variable Coordinate 2
   Real MATC "25*(1-(2*((tx-0.4699)/0.127-0.5))^2)"

  Velocity 2 = 0
End


Solver 1
  Equation = V2-F

  Procedure = "V2FSolver" "V2F_LDM"
  Variable = V2F[V2:1 F:1]
 
  Stabilization Method = String Bubbles
  Nonlinear System Max Iterations = 1
  Nonlinear System Convergence Tolerance = 1.0e-5
  Nonlinear System Newton After Iterations = 20
  Nonlinear System Newton After Tolerance = 1.0e-3
  Nonlinear System Relaxation Factor = 0.75

  Linear System Solver = Direct
  Linear System Direct Method = UMFPack
  Steady State Convergence Tolerance = 1.0e-4
End


Solver 2
  Equation = K-Epsilon

  Procedure = "KESolver" "KESolver"
  Variable = KEpsilon[Kinetic Energy:1 Kinetic Dissipation:1]
 
  Nonlinear System Max Iterations = 5
  Nonlinear System Convergence Tolerance = 1.0e-5
  Nonlinear System Newton After Iterations = 20
  Nonlinear System Newton After Tolerance = 1.0e-3
  Nonlinear System Relaxation Factor = 0.25

  Linear System Solver = Direct
  Linear System Direct Method = UMFPack
  Steady State Convergence Tolerance = 1.0e-4
End


Solver 3
  Equation = Navier-Stokes

  Stabilization Method = Bubbles
  Nonlinear System Max Iterations = 1
  Nonlinear System Convergence Tolerance = 1.0e-5
  Nonlinear System Relaxation Factor = 0.75
  Nonlinear System Newton After Iterations = 10
  Nonlinear System Newton After Tolerance  = 1.0e-3

  Linear System Solver = Direct
  Linear System Direct Method = UMFPack
  Steady State Convergence Tolerance = 1.0e-4
End


Solver 4
  Exec Solver = After Simulation
  Equation = SaveLine
  Procedure = "SaveData" "SaveLine"
  Filename = "curve.dat"

$x = -3 3 6 14 17 20 24 27 30 34
$x = (5+x)*0.127
Polyline coordinates(20,2) =  $ x(0) 0 x(0) 1 x(1) 0 x(1) 1 x(2) 0 x(2) 1 \
                                x(3) 0 x(3) 1 x(4) 0 x(4) 1 x(5) 0 x(5) 1 \
                                x(6) 0 x(6) 1 x(7) 0 x(7) 1 x(8) 0 x(8) 1 \
                                x(9) 0 x(9) 1
End


Equation 1 :: Active Solvers(3) = 1 2 3


Material 1
  Viscosity = $25*0.127/20000
  Density = 1

  KE Model = "V2-F"
  Viscosity Model = ke
  KE Clip = Real 1.0e-12
End
 

Boundary Condition 1
  Target Boundaries = 1

  V2 = Equals V2
  F  = Equals F
  Velocity 1 = Equals Velocity 1
  Kinetic Energy = Equals Kinetic Energy
  Kinetic Dissipation = Equals Kinetic Dissipation

  Velocity 2 = 0

! uncomment for channel flow:
!Flow Force BC = True
!Pressure 1 = 325
End


Boundary Condition 2
  Target Boundaries = 2

! uncomment for channel flow:
! Periodic BC = 1
! Periodic BC Velocity 1 = Logical True
! Periodic BC Velocity 2 = Logical True
! Periodic BC V2 = Logical True
! Periodic BC F  = Logical True
! Periodic BC Kinetic Energy = Logical True
! Periodic BC Kinetic Dissipation = Logical True

  Pressure   = 0
  Velocity 2 = 0
End


Boundary Condition 3
  Target Boundaries(2) = 3 4

  Noslip Wall BC = Logical True
End

Solver 3 :: Reference Norm = Real 10.0884
Solver 3 :: Reference Norm Tolerance = Real 1e-3
RUN
