!
! Solve the mixed formulation of the Poisson equation by using div-conforming
! (face) finite elements of degree k = 1.
!
! This test is used to check that mixed boundary conditions (the flux and 
! the scalar field specified on complementary parts of the boundary) are
! handled correctly.
!

Check Keywords "Warn"

Header
  Mesh DB "." "square"
End

Simulation
  Max Output Level = 5
  Coordinate System = "Cartesian 2D"
  Simulation Type = Steady
  Output Intervals(1) = 1
  Steady State Max Iterations = 1
!  Post File = "rt.vtu"
End

Body 1
  Equation = 1
  Material = 1
  Body Force = 1
End

Body Force 1
  Source Field = Variable Time
     Real Procedure "Source" "SourceFun"
End

Material 1
   Material Parameter = Real 1.0
End

Equation 1
  Active Solvers(1) = 1
End

Solver 1
  Equation = "Mixed Poisson"
  Variable = "MixedSol"
  Variable DOFs = 1
  Procedure = "ModelMixedPoisson" "MixedPoisson"
  !-------------------------------------------------------
  ! Here the bubble dof is used for constructing
  ! the piecewise constant approximation of the
  ! variable of the Poisson equation in the standard form.
  !-------------------------------------------------------
  Element = "n:0 e:1 b:1"
  Second Kind Basis = Logical False
  Optimize Bandwidth = False
  Bubbles in Global System = Logical True
  Linear System Solver = Iterative
  Linear System Iterative Method = GCR
  Linear System Preconditioning = ILU0
  Linear System Row Equilibration = Logical True
  Linear System Max Iterations = 500
  Linear System Convergence Tolerance = 1e-7
End


Boundary Condition 1
  !
  ! Prescribe the flux variable as a Dirichlet condition:
  !
  Target Boundaries(2) = 2 3
  MixedSol {f} 1 = Real 0.0
  MixedSol {f} 2 = Real 0.0 
End

Boundary Condition 2
  !
  ! Prescribe the scalar variable on the boundary x=0 weakly:
  !
  Target Boundaries(1) = 1
  Scalar Field = Real 0.0
End

Boundary Condition 3
  !
  ! Prescribe the scalar variable on the boundary x=1 weakly:
  !
  Target Boundaries(1) = 4
  Scalar Field = Real 1.0
End

Solver 1 :: Reference Norm = Real 3.62862802E-01
Solver 1 :: Reference Norm Tolerance = Real 1.0E-6
