Header
  CHECK KEYWORDS Warn
  Mesh DB "." "mesh"
End

Simulation
  Max Output Level = 5
  Coordinate System = "Cartesian 2D"
  Coordinate Mapping(3) = 1 2 3
  Simulation Type = "Steady State"
  Steady State Max Iterations = 20
  Output Intervals = 1
  Solver Input File = "mesh.sif"
! Post File = "stress.ep"
! Output File = "stress.dat"
End

Constants
End

Body 1
  Equation = 1
  Material = 1
End

Equation 1
  Active Solvers = 1
End

Solver 1
  Equation = "ElasticSolve"
  Variable = "Displacement"
  Variable Dofs = 2

  Procedure = "ElasticSolve" "ElasticSolver"
 
  Elasticity Solver Linear = Logical True
  
  Linear System Solver = Direct
  Linear System Direct Method = UMFPack

  Adaptive Mesh Refinement = True
  Adaptive Remesh = False
  Adaptive Error Limit = 0.01

  Optimize Bandwidth = Logical False
  Steady State Convergence Tolerance = 1.0d-7
End


Material 1
  Density = 1
  Youngs Modulus = 3.890733451865769e+04
! Youngs modulus has been chosen here such that the Eulerian
! solution (critical loads) is given by (2n+1)^2 for n=0,1,2,...
  Poisson Ratio = 0.3
End

Boundary Condition 1
  Target Boundaries(1) = 1
  Displacement 1 = 0
  Displacement 2 = 0
End

Boundary Condition 2
  Target Boundaries(1) = 2
  Force 1 = -20.0
End

Solver 1 :: Reference Norm = Real 0.161977494682E-03
Solver 1 :: Reference Norm Tolerance = Real 0.05
RUN
