!--------------------------------------------------------------------
! Test case for setting level at given entity only at one node. 
! This functionality could be of use when the PDE does not have any 
! other BCs that would fix the level. For example, in electrostatic
! problems the level of potential could be floating. 
! P.R. / 25.11.2014
!--------------------------------------------------------------------


Header
  CHECK KEYWORDS Warn
  Mesh DB "." "squares"
  Include Path ""
  Results Directory ""
End

Simulation
  Max Output Level = 5
  Coordinate System = "Cartesian"
  Coordinate Mapping(3) = 1 2 3
  Simulation Type = "Steady State"
  Steady State Max Iterations = 1
  Output Intervals = 1
  Post File = "case.vtu"
End

Constants
  Gravity(4) = 0 -1 0 9.82
  Stefan Boltzmann = 5.67e-08
End

Body 1
  Name = "Body1"
  Body Force = 1
  Equation = 1
  Material = 1
End

Body 2
  Name = "Body2"
  Body Force = 2
  Equation = 1
  Material = 1
End

Body 3
  Name = "Body3"
  Body Force = 3
  Equation = 1
  Material = 1
End

Equation 1
  Name = "Equations"
  Active Solvers(1) = 1 
End

Solver 1
  Exec Solver = "Always"
  Equation = "Heat Equation"
  Variable = "Temperature"
  Variable Dofs = 1
  Linear System Solver = "Iterative"
  Linear System Iterative Method = "BiCGStab"
  Linear System Max Iterations = 350
  Linear System Convergence Tolerance = 1.0e-08
  Linear System Abort Not Converged = True
  Linear System Preconditioning = "ILU0"
  Linear System Residual Output = 1
  Steady State Convergence Tolerance = 1.0e-05
  Stabilize = True
  Nonlinear System Convergence Tolerance = 1.0e-05
  Nonlinear System Max Iterations = 2
  Nonlinear System Newton After Iterations = 3
  Nonlinear System Newton After Tolerance = 1.0e-02
  Nonlinear System Relaxation Factor = 1.0

!  Calculate Loads = Logical True
!  Calculate Boundary Fluxes = Logical True
End


Solver 2
  Equation = SaveScalars
  Procedure = "SaveData" "SaveScalars"

  Variable 1 = Temperature
  Operator 1 = Min
  Operator 2 = Max

!  Filename = f.dat
End

Material 1
  Name = "Material"
  Density = 1
  Heat Conductivity = 1
End


! Fix levels in single points automatically
!-------------------------------------------
Body Force 1
  Name = "BodyForce1"
  Temperature Single Node = Real 1.0
End

Body Force 2
  Name = "BodyForce2"
  Temperature Single Node = Real 2.0
End

Body Force 3
  Name = "BodyForce3"
  Temperature Single Node = Real 3.0
End

Boundary Condition 1
  Name = "Constraint1"
  Target Boundaries(1) = 1 
End

Boundary Condition 2
  Name = "Constraint2"
  Target Boundaries(1) = 2 
End

Boundary Condition 3
  Name = "Constraint3"
  Target Boundaries(1) = 3 
End



Solver 1 :: Reference Norm = Real 2.1602469
RUN
!End Of File
