!------------------------------------------------------------------------------
!  THE DESCRIPTION OF THIS TEST:  
!
!  Solve the best approximation of the vector field U = (0,0,xy^3/6+yx^3/6)
!  with respect to the energy norm (corresponding to the operator I + curl curl) 
!  by using H(curl)-conforming basis functions of degree 2. Additionally, compute 
!  the relative error of the solution using the energy norm.
!------------------------------------------------------------------------------

Check Keywords "Warn"

Header
  Mesh DB "." "cube3"
End

Simulation
  Max Output Level = 5
  Coordinate System = "Cartesian 3D"
  Simulation Type = Steady
  Output Intervals(1) = 1
  Steady State Max Iterations = 1
!  Post File = "interpolationtest.vtu"
End

Body 1
  Equation = 1
  Material = 1
  Body Force = 1
End


!------------------------------------------------------------
! There is no need for giving a source term:
!------------------------------------------------------------
Body Force 1
!  Body Source 1 = Real 0
!  Body Source 2 = Real 0
!  Body Source 3 = Real 0  
End

!----------------------------------------------------------
! No material parameters needed to define the solution:
!----------------------------------------------------------
 Material 1
!   Conductivity = Real 1.0
 End

Equation 1
  Active Solvers(1) = 1
End

Solver 1
  Equation = "Interpolation test"
  Variable = "P"
  Variable DOFs = 1
  Procedure = "EdgeElementTest" "EdgeElementSolver"

  Element = "n:0 e:2 f:2"

  Optimize Bandwidth = True
  Bubbles in Global System = Logical True
  Linear System Solver = Iterative
!  Linear System Iterative Method = GCR
!  Linear System GCR Restart = 200
  Linear System Iterative Method = BiCGStabl
  BiCGstabl polynomial degree = 4
  Linear System Preconditioning = none
!  Linear System Row Equilibration = Logical True
  Linear System Max Iterations = 1000
  Linear System Convergence Tolerance = 1e-8
  Linear System Abort Not Converged = False

  Error Computation = Logical True
  Use Energy Norm = Logical True
  Tabulate Basis = Logical False

  Linear System Save = Logical False
  Linear System Save Slot = String assembly
  Linear System Save Perm = Logical True
!  Linear System Save and Stop = Logical True
End

Solver 1 :: Reference Norm = Real 4.00615662E-02
Solver 1 :: Reference Norm Tolerance = Real 1.0E-6

