! Computation of the case winkel with various linear solvers
! This case: hutiter / CG
!
! P.R. 1.12.2016

$solvertype = "iterative"
$solvermethod = "cg"
$precmethod = "ILU0"
$maxiter = 1000
$tol = 1.0e-8

Header
  CHECK KEYWORDS Warn
  Mesh DB "." "winkel"
  Include Path ""
  Results Directory ""
End

Simulation
  Max Output Level = 7

  Coordinate System = "Cartesian"
  Coordinate Mapping(3) = 1 2 3
  Simulation Type = "Steady State"
  Steady State Max Iterations = 1
  Output Intervals = 1

  Simulation Timing = Logical True
!  Post File = "case.vtu"
End

Constants
  Gravity(4) = 0 -1 0 9.82
  Stefan Boltzmann = 5.67e-08
End

Body 1
  Name = "Body"
  Body Force = 1
  Equation = 1
  Material = 1
End

Equation 1
  Name = "Equations"
  Active Solvers(2) = 1 2
End

Solver 1
  Exec Solver = "Always"
  Equation = "Heat Equation"
  Variable = "Temperature"
  Variable Dofs = 1
  
  Linear System Solver = $solvertype
  Linear System Iterative Method = $solvermethod
  Linear System Max Iterations = $maxiter
  Linear System Convergence Tolerance = $tol
  Linear System Abort Not Converged = True
  Linear System Preconditioning = $precmethod
  Linear System Residual Output = 20

  Nonlinear System Consistent Norm = True

  Steady State Convergence Tolerance = 1.0e-05

  Stabilize = False
  Nonlinear System Convergence Tolerance = 1.0e-05
  Nonlinear System Max Iterations = 1
  Nonlinear System Newton After Iterations = 3
  Nonlinear System Newton After Tolerance = 1.0e-02
  Nonlinear System Relaxation Factor = 1.0

! Add some timing info
  Linear System Timing = True
  Solver Timing = True
End



Solver 2
  Exec Solver = after simulation

  Equation = SaveTimings
  Procedure = "SaveData" "SaveScalars"

  Filename = f.dat
  Variable 1 = Temperature 
  Operator 1 = dofs
  Operator 2 = elements
  Operator 3 = partitions
  Operator 4 = cpu time
End

Material 1
  Name = "Material"
  Density = 1
  Heat Conductivity = 3
End

Body Force 1
  Name = "BodyForce"
  Heat Source = 1
End

Boundary Condition 1
  Name = "Constraint"
  Target Boundaries(1) = 1 
  Temperature = 0
End

Solver 1 :: Reference Norm = 3.44270946E-01

!End Of File
