!# Solves two decoupled Poisson equations at same time.
!# Here the two equations are independent and could have been solved
!# using single field solvers as well. Howeber, two dummy solvers are
!# needed to reserve appropriate vectors T1 and T2.

Header
  CHECK KEYWORDS Warn
  Mesh DB "." "angle"
  Include Path ""
  Results Directory ""
End

Simulation
!  Max Output Level = 5
  Coordinate System = "Cartesian"
  Coordinate Mapping(3) = 1 2 3

  Simulation Type = "Steady State"
  Steady State Max Iterations = 1
  Steady State Min Iterations = 1
  Output Intervals = 1

!  Post File = "case.ep"
End

Constants
  Gravity(4) = 0 -1 0 9.82
  Stefan Boltzmann = 5.67e-08
End

Body 1
  Name = "Body1"
  Body Force = 1
  Equation = 1
  Material = 1
End

Body 2
  Name = "Body2"
  Body Force = 1
  Equation = 2
  Material = 1
End

Equation 1
  Name = "Equation1"
!  Active Solvers(1) = 1 
  Active Variables(1) = Integer 1
End

Equation 2
  Name = "Equation2"
!  Active Solvers(2) = 1 2
  Active Variables(2) = Integer 1 2
End


Solver 1
  Coupled Solver = Logical True
  Variable = alldofs

  Steady State Convergence Tolerance = 1.0e-05
  Nonlinear System Relaxation Factor = Real 1.0
  Nonlinear System Max Iterations = Integer 3

  Linear System Solver = "Iterative"
  Linear System Iterative Method = bicgstab
  Linear System Convergence Tolerance = 1.0e-8
  Linear System Max Iterations = 500
  Linear System Preconditioning = ILU0

  Equation = "test"
  Variable 1 = String T1
  Variable 1 Dofs = Integer 1
  Bulk Assembly Procedure 11 = File "./PoissonAssembly" "BulkAssembly"

  Variable 2 = String T2
  Variable 2 Dofs = Integer 1
  Bulk Assembly Procedure 22 = File "./PoissonAssembly" "BulkAssembly"
End  

Solver 2
  Exec Solver = never

  Equation = "SaveData"
  Procedure = "SaveData" "SaveScalars"
  Filename = g3.dat
  Variable 1 = T1
  Operator 1 = min
  Variable 2 = T1
  Operator 2 = max
  Variable 3 = T2
  Operator 3 = min
  Variable 4 = T2
  Operator 4 = max
End 


Material 1
  Name = "Material1"

  Density = real 1

  Conductivity = Real 1.0
  Reaction = Real 0.0
  Source = Real 1.0
End

Body Force 1
  Name = "BodyForce1"
  Heat Source = real 1
End

Boundary Condition 1
  Target Boundaries(1) = 1
  T1 = Real 0
End

Boundary Condition 2
  Target Boundaries(1) = 2 

  T1 = Real 0
  T2 = Real 0
End

Boundary Condition 3
  Target Boundaries(1) = 3 
  T2 = Real 0
End

Solver 1 :: Reference Norm = Real 0.69605251E-01
RUN

