! This is a test case to study shell solver with sharp corners.
! The derivation of the solver is not done assuming such geometric
! but computed fields seem to be realistic anaway...
!
! This is also a test case for freely floating harmonic case.
!
! P.R. 8.1.2018


Header
  Mesh DB "." "cube"
End

Constants
End

Simulation
  Max Output Level = 10
  Coordinate System = Cartesian
  Simulation Type = Scanning
  Output Intervals = 1
  Timestep Intervals = 2 ! test just for two frequencies i.e. 1 and 2 Hz. 
  Steady State Max Iterations = 1

  Post File = "case.vtu"
  vtu: Save Boundaries Only = Logical True

  Frequency = Variable "time"
    Real MATC "2^(tx-1)"
End

Body 1
  Equation = 1 
  Material = 1
End

Body 2
  Equation = 2
  Material = 2
  Body Force = 1
End


Body Force 1
  Normal Pressure = Real -1.0e5
End


Material 1
  Name = "Inside"
End

Material 2
  Name = "Shell" 
  Density = 2710.0
  Youngs Modulus = 70e9
  Poisson Ratio = 0.3
  Shell Thickness = 0.001
End


Equation 1
  Name = "nothing here" 
End

Equation 2
  Name = "shell solver"
  Active Solvers(1) = 1
End


Solver 1
  Equation = "Shell equations"

  Procedure = "ShellSolver" "ShellSolver"

  Linear System Solver = "Direct"
  !Linear System Solver = "Iterative"
  Linear System Direct Method = MUMPS

  Linear System Preconditioning = ILU2
!  Linear System Row Equilibration = Logical True
  Linear System Max Iterations = 1000
  Linear System Convergence Tolerance = 1e-9
  Linear System Iterative Method = bicgstab2 !GCR
  Linear System GCR Restart = 100
  Linear System Abort Not Converged = False
  Linear System Residual Output = 1 

  Steady State Convergence Tolerance = 1e-09
  Nonlinear System Convergence Tolerance = 1e-8
  Nonlinear System Max Iterations = 1

  Harmonic Mode = Logical True

! The defaults are True for the following 2 keywords:
  Linear System Scaling = False
!  Optimize Bandwidth = False
  Linear System Complex = False

  Large Deflection = Logical False
End


Solver 2
  Equation = "SaveScalars"
  Procedure = File "SaveData" "SaveScalars"

  Exec Solver = after timestep

  Variable 1 = U 3
  Operator 1 = min 
  Operator 2 = max 
  Operator 3 = int mean

  Filename = shell.dat
End



Boundary Condition 1
  Target Boundaries(4) = 1 2 3 4
  Name = "Sides"

  Body Id = 2 
End 

Boundary Condition 2
  Target Boundaries(1) = 5
  Name = "Bottom"

!  U 1 = Real 0
!  DNU 1 = Real 0
!  U 2 = Real 0
!  DNU 2 = Real 0
!  U 3 = Real 0
!  DNU 3 = Real 0

  Body Id = 2 
End 

Boundary Condition 3
  Target Boundaries(1) = 6
  Name = "Top"

  Save Scalars = True
  Body Id = 2
End


Solver 1 :: reference norm = 1.79678138E+01