Header
  CHECK KEYWORDS Warn
  Mesh DB "." "square"
  Include Path ""
  Results Directory ""
End

Simulation
  Max Output Level = 7

  Coordinate System = "Cartesian"
  Coordinate Mapping(3) = 1 2 3

  Simulation Type = "Transient"
  Steady State Max Iterations = 1
  Output Intervals = 0

  Timestep Intervals = 1
  Timestep Sizes = 1.0
  Timestepping Method = "implicit euler"


!  Output File = "TempDist.dat"
  Post File = "case_c.vtu"

  Mesh Split Levelset = Logical True
  Levelset function = Variable "coordinate"
    Real LUA "(tx[0]-0.5)+0.75-tx[0]^2-tx[1]^2"
  Levelset Body Offset = Integer 1 
  Levelset Epsilon = Real 0.1
End

Constants
  Gravity(4) = 0 -1 0 9.82
  Stefan Boltzmann = 5.67e-08
End

Body 1
  Name = "Body1"
  Body Force = 1
  Equation = 1
  Material = 1
End

Body 2
  Name = "Body2"
  Body Force = 2
  Equation = 1
  Material = 2
End



Equation 1
  Name = "Equations"
  Active Solvers(1) = 1 
End

Solver 1
  Exec Solver = "Always"
  Equation = "Heat"

  Procedure = "HeatSolve" "HeatSolver"
  Variable = "Temperature"

  Linear System Solver = "Iterative"
  Linear System Iterative Method = "BiCGStab"
  Linear System Max Iterations = 500
  Linear System Convergence Tolerance = 1.0e-10
  Linear System Abort Not Converged = True
  Linear System Preconditioning = "ILU1"

  Nonlinear System Max Iterations = 1
  Nonlinear System Consistent Norm = True
End


Material 1
  Name = "Material"
  Density = 1
  Heat Conductivity = 1.0
  Heat Capacity = 1.0
End

Material 2
  Name = "Material"
  Density = 1
  Heat Conductivity = 1.0
  Heat Capacity = 1.0
End

Body Force 1
  Name = "BodyForce1"
  Heat Source = 0
End

Body Force 2
  Name = "BodyForce2"
  Heat Source = 0
End

Boundary Condition 1
  Name = "South"
  Target Boundaries(1) = 1 
  Temperature = 0
End

Boundary Condition 2
  Name = "East"
  Target Boundaries(1) = 2
End

Boundary Condition 3
  Name = "North"
  Target Boundaries(1) = 3
End

Boundary Condition 4
  Name = "West"
  Target Boundaries(1) = 4
  Temperature = 0
End

Boundary Condition 5
  Name = "Interface"
!  Temperature = 1.0
  Heat Flux = 1.0
End


Solver 1 :: Reference Norm = 4.13347419E-01
!End Of File
