! Consistency test for workflow where Comsol Multiphysics
! .mphtxt file is converted with ElmerGrid
!
! P.R. 16.9.2020

Header
  CHECK KEYWORDS Warn
  Mesh DB "." "mesh"
  Include Path ""
  Results Directory ""
End

Simulation
  Max Output Level = 5
  Coordinate System = "Cartesian"
  Simulation Type = "Steady State"
  Steady State Max Iterations = 1
  Output Intervals = 0

!  Post File = case.vtu
End 

Constants
  Gravity(4) = 0 -1 0 9.82
  Stefan Boltzmann = 5.67e-08
End

Body 1
  Name = "Body"
  Body Force = 1
  Equation = 1
  Material = 1
End

Equation 1
  Name = "Equations"
  Active Solvers(1) = 2
End

Solver 1
  Equation = "CheckMesh"
  Procedure = "MeshChecksum" "MeshChecksum"
  Reference Values(8) = 145 29232 58 3580 14544 8 2220 44.071428571428001
End

Solver 2
  Equation = "Heat Equation"
  Variable = "Temperature"
  Procedure = "HeatSolve" "HeatSolver"

  Linear System Solver = "Iterative"
  Linear System Iterative Method = "BiCGStab"
  Linear System Max Iterations = 1000
  Linear System Convergence Tolerance = 1.0e-08
  Linear System Abort Not Converged = True
  Linear System Preconditioning = "ILU0"
  Linear System Residual Output = 0
  Nonlinear System Max Iterations = 1
End

Material 1
  Name = "Material"
  Density = 1
  Heat Conductivity = 1
End

Body Force 1
  Name = "BodyForce"
  Heat Source = 1
End

Boundary Condition 1
  Name = "Constraint"
  Target Boundaries(1) = 1 
  Temperature = 0
End

Solver 1 :: Reference Norm = Real 1.0
Solver 2 :: Reference Norm = Real 3.68417639E-01
