!---------------------------------------------------------
! Linear elasticity of a simple rectangular object 
! Create the mesh with: ElmerGrid 1 2 winkel.grd
!
! The purpose of this case is to ensure operation with p:2
! both with StressSolver and SaveLine. Mesh is set really coarse.
!
! P.R. 13.9.2021
!------------------------------------------------------------

Header
  Mesh DB "." "winkel"
  Include Path ""
  Results Directory ""
End 


Simulation
  Max Output Level = 5
  Coordinate System = Cartesian 
  Coordinate Mapping(3) = 1 2 3
  Simulation Type = Steady
  Steady State Max Iterations = 1
  Output Intervals = 0

!  Mesh Levels = 2
  Post File = case.vtu ! consider giving "Lagrange Element Degree" in p-visualization
End

Constants
  Gravity(4) = 0 -1 0 9.82
  Stefan Boltzmann = 5.67e-8
End

Body 1
  Name = "Body"
  Equation = 1
  Material = 1 
End

Equation 1
  Name = "Elasticity"
  Active Solvers = 1 
End


Material 1
  Name = "Ideal"
  Youngs Modulus = 1.0e9
  Density = 1.0e3
  Poisson Ratio = 0.3
End

Solver 1
  Equation = LinElast
  Variable = -dofs 3 Displacement
  Procedure = "StressSolve" "StressSolver"

  Element = p:2

  Steady State Convergence Tolerance = 1.0e-5

  Exec Solver = Always
  Stabilize = False
  Bubbles = False
 
  Nonlinear System Convergence Tolerance = 1.0e-8
  Nonlinear System Max Iterations = 1

  Linear System Solver = Direct
  Linear System Direct Method = MUMPS

  Linear System Timing = True
  Solver Timing = True
 
  Linear System Symmetric = True
  Optimize Bandwidth = False
  Nonlinear System Consistent Norm = Logical True
  Linear System Scaling = True

  Displace Mesh = Logical False

!  Calculate Stresses = Logical True
End 



Solver 2
  Equation = "save line"
  Procedure = "SaveData" "SaveLine"

! We have line going from corner to corner. 
  Polyline Coordinates(2,3) = 0 2 0 2 0 2
  Polyline Divisions(1) = 400

  Filename = f.dat

! Just make a reference norm from sum of stress_xx entries. 
  Show Norm Index = 9
End


Boundary Condition 1
  Name = "Wall"
  Target Boundaries = 3
  Displacement 1 = 0.0
  Displacement 2 = 0.0
  Displacement 3 = 0.0
End

Boundary Condition 2
  Name = "Force"
  Target Boundaries = 7

  Force 2 = 1.0e6
End

Boundary Condition 3
  Name = "Natural"
  Target Boundaries(5) = 1 2 4 5 6
End


Solver 1:: Reference Norm = 1.31650057E-02
Solver 2:: Reference Norm = 4.79432983E+00
! The saving of line creates some additional nodes in parallel.
! This is ok, so let us use a little sloppier tolerance.
Solver 2:: Reference Norm Tolerance = 3.0e-3
