! This test case computes the magnetic field induced by a square wire
!
! This one with extruded wedge mesh & confor BCs. 
!
! P.R. 29.4.2019

Check Keywords "Warn"

Header
  Mesh DB "." "hexwire"
End

Simulation
  Max Output Level = 10
  Coordinate System = "Cartesian"
  Simulation Type = Steady
  Steady State Max Iterations = 1
  Output Intervals(1) = 1

  Coordinate Scaling = 1.0e-3
  Post File = case.vtu
End

Body 1
  Name = "Wire"
  Equation = 1
  Material = 1
  Body Force = 1
End

Body 2
  Name = "Air"
  Equation = 1
  Material = 2
End

Material 1
  Name = "Cu"
  Relative Permittivity = 1
  Relative Permeability = 1
  Electric Conductivity = 58e6
End

Material 2
  Name = "Air"
  Relative Permittivity = 1.0
  Relative Permeability = 1.0
  Electric Conductivity = 0.0
End 

Equation 1
  Active Solvers(2) = 1 2 
End


Solver 1
  Equation = "MGDynamicsSolve"

  Variable = "AV"
  Procedure = "MagnetoDynamics" "WhitneyAVSolver"
!  Fix Input Current Density = False

  Linear System Solver = "Iterative"
  Linear System Preconditioning = none
  Linear System Residual Output = 10
  Linear System Max Iterations = 1000
  Linear System Iterative Method = BiCgStabl 
  Linear System Convergence Tolerance = 1.0e-7
  BicgStabl Polynomial Degree = 4

  Apply Conforming BCs = Logical True
  Optimize Bandwidth = False

  Edge Basis = Logical True
End


Solver 2
!  Exec Solver = never
  Equation = "MGDynamicsCalc"

  Procedure = "MagnetoDynamics" "MagnetoDynamicsCalcFields"
  Linear System Symmetric = True

  Potential Variable = String "AV"

  Calculate Current Density = False 
  Calculate Electric Field = False 
  Calculate Magnetic Field Strength = True
  Calculate Joule Heating = False
  Calculate Magnetic Vector Potential = True

  Steady State Convergence Tolerance = 0
  Linear System Solver = "Iterative"
  Linear System Preconditioning = None
  Linear System Residual Output = 10
  Linear System Max Iterations = 5000
  Linear System Iterative Method = CG
  Linear System Convergence Tolerance = 1.0e-8

  Optimize Bandwidth = False

  Calculate Nodal Fields = Logical True
  Calculate Elemental Fields = Logical False
  Impose Body Force Potential = Logical True
  Impose Body Force Current = Logical True

  Apply Conforming BCs = Logical True
End


Body Force 1
! a) Give current density
  Current Density 1 = 0.0
  Current Density 2 = 0.0
  Current Density 3 = $ 1.0e6/(1.0e-6*pi)
End


Boundary Condition 1
  Name = "AirStart"
  Target Boundaries(1) = 5

  AV {e} = Real 0.0
End


Boundary Condition 2
  Name = "WireStart"
  Target Boundaries(1) = 6 

  AV {e} = Real 0.0
End


Boundary Condition 3
  Name = "AirEnd"
  Target Boundaries(1) = 7

  AV {e} = Real 0.0
End


Boundary Condition 4
  Name = "WireEnd"
  Target Boundaries(1) = 8

  AV {e} = Real 0.0
End


! Conforming maps make the linear sysmtem smaller as it identifies
! the nodes/edges to the the boundray.

Boundary Condition 5
  Name = "MaxX"
  Target Boundaries(1) = 2

  Conforming BC = Integer 6
  Plane Projector = Logical True
End



Boundary Condition 6
  Name = "MinX"
  Target Boundaries(1) = 1

! For some reason we cannot converge if this is not set!
  AV {e} = Real 0.0
End
 
Boundary Condition 7
  Name = "MaxY"
  Target Boundaries(1) = 4

!  AV {e} = Real 0.0

  Conforming BC = Integer 8
  Plane Projector = Logical True
End

 
Boundary Condition 8
  Name = "MinY"
  Target Boundaries(1) = 3
End

Solver 1 :: Reference Norm = 3.14783902E-03

