! Test case for "residual mode" of linear system.
! Inaccurate linear system solver settings used. 
! Otherwise similar to heateq_spline_table.
!
! P.R. 4.8.2015

Header
  CHECK KEYWORDS Warn
  Mesh DB "." "angle"
  Include Path ""
  Results Directory ""
End

Simulation
  Max Output Level = 5
  Coordinate System = "Cartesian"
  Steady State Max Iterations = 1
  Output Intervals = 1
  Simulation Type = Steady State
  Output Intervals = 1
!  Post File = "data.vtu"
End

Constants
  Gravity(4) = 0 -1 0 9.82
  Stefan Boltzmann = 5.67e-08
End

Body 1
  Name = "Body1"

  Body Force = 1
  Equation = 1
  Material = 1
End

Equation 1
  Name = "Equation1"
  Active Solvers = 1 
End

Solver 1
  Equation = "heat"
  Variable = "Temp"
  Procedure = "HeatSolve" "HeatSolver"

  Linear System Solver = Iterative
  Linear System Iterative Method = GCR
  Linear System Max Iterations = 500
  Linear System Convergence Tolerance = 1.0e-1
  Linear System Preconditioning = ILU1
  Linear System Abort Not Converged = False
  Linear System Residual Output = 10
  Linear System Precondition Recompute = 1

  Linear System Residual Mode = Logical True

  Stabilize = True
  Nonlinear System Convergence Tolerance = 1.0e-05
  Nonlinear System Max Iterations = 100
  Nonlinear System Relaxation Factor = 1.0
  Nonlinear System Newton After Iterations = 3
  Nonlinear System Newton After Tolerance = 1.0e-02
End

Solver 2 
  Exec Solver = never
  Equation = "save scalars"
  Procedure = "SaveData" "SaveScalars"
  Variable 1 = Temp
  Operator 1 = int mean
  Variable 2 = Temp
  Operator 2 = max
  Variable 3 = Time
  Filename = f.dat
End 


Material 1
  Name = "Material"
  Density = 1.0

! Introduce a rather nonlinear material law (max temp ~3.4) 
!
!  1) MATC routine (generic but slow!)
!  Heat Conductivity = Variable Temp
!    Real MATC "1/(1+tx)"
!
! 2) given table with precalculate conductivity
! You may use either cubic spline or linear (just drop the Cubic then)
! Cubic table gives the same results closely as the MATC routine above.
  Heat Conductivity = Variable Temp
    Real Cubic
      include cond.dat
    End 
  Heat Capacity = 1.0
End

Body Force 1
  Name = "BodyForce"
  Heat Source = 10.0
End

Boundary Condition 1
  Name = "FixedTemp"
  Target Boundaries = 1 
  Temp = Real 0.0
End

Solver 1 :: Reference Norm = Real 1.5131000
