Header
  Mesh DB "." "mesh"
  Include Path ""
  Results Directory ""
End


Simulation
  Max Output Level = 5
  Coordinate System =  Cylindric Symmetric
  Coordinate Mapping(3) = 1 2 3

  Simulation Type = Steady State 
  Steady State Max Iterations = 20

  Output Intervals = 1
! Post File = "mhd2.ep"
! Output File = "mhd.dat"
End


Constants
  Gravity(4) = 0 -1 0 9.82
  Stefan Boltzmann = 5.67e-8
End


Body 1
  Equation = 1
  Material = 1
  Body Force = 1
End


Equation 1
  Active Solvers(2) = 1 2
End

Body Force 1
  Lorentz Force = Logical True
End


Solver 1
   Equation = "Navier-Stokes"

   Linear System Solver = Iterative
   Linear System Iterative Method = BiCGStab
   Linear System Max Iterations = 500

   Linear System Convergence Tolerance = 1.0e-6
   Linear System Preconditioning = ILU3
   Linear System Residual Output = 10
   Steady State Convergence Tolerance = 1.0e-4
   Stabilize = True

   Nonlinear System Convergence Tolerance = 1.0e-5
   Nonlinear System Max Iterations = 1
   Nonlinear System Newton After Iterations = 3
   Nonlinear System Newton After Tolerance = 1.0e-2
   Nonlinear System Relaxation Factor = 0.8
End


Solver 2
! Exec Solver = Never
   Equation = "Magnetic field solver"

   Procedure = "MagneticSolve" "MagneticSolver"
   Variable = Magnetic Field
   Variable DOFs = 3

!   Exported Variable 1 = -dofs 3 electric current
   Exported Variable 1 = -dofs 3 lorentz force

   Linear System Solver = Direct
   Linear System Direct Method = UMFPack
   Linear System Iterative Method = BiCGStab
   Linear System Max Iterations = 500

   Linear System Convergence Tolerance = 1.03e-5
   Linear System Preconditioning = ILU3
   Linear System Residual Output = 1
   Steady State Convergence Tolerance = 1.0e-4
   Stabilize = True

   Nonlinear System Convergence Tolerance = 1.0e-5
   Nonlinear System Max Iterations = 1
   Nonlinear System Newton After Iterations = 3
   Nonlinear System Newton After Tolerance = 1.0e-2
   Nonlinear System Relaxation Factor = 1.0
End



Material 1
  Density = 1
  Viscosity = 1e-2  

  Magnetic Permeability = 1
  Electric Conductivity = 1000

  Applied Magnetic Field 2 = Variable Coordinate 1
     Real
      0    0
      1    0.0001
     End

End


Boundary Condition 1
  Target Boundaries = 1


  Velocity 1 = 0
  Velocity 2 = 0.1

End

Boundary Condition 2
  Target Boundaries = 2 

  Velocity 1 = 0
  Velocity 2 = 0
  Velocity 3 = 0.01

  Magnetic Field 1 = Real 0
  Magnetic Field 2 = Real 0
  Magnetic Field 3 = Real 0

End

Boundary Condition 3
  Target Boundaries = 5 

  Velocity 1 = 0
End

Boundary Condition 4
  Target Boundaries = 4

  Velocity 1 = 0
  Velocity 3 = 0

  Magnetic Field 1 = Real 0
  Magnetic Field 3 = Real 0

End

Solver 2 :: Reference Norm = Real 0.28345405E-03
Solver 2 :: Reference Norm Tolerance = Real 1.0e-04
RUN

!End of File
