! A simple case of combined analysis of 2-D shells and 1-D beams.
! The problem is solved as nonlinear although the beam sections can add only 
! linearly behaving stiffness.


Check Keywords "Warn"

Header
  Mesh DB "." "strip_with_beams"
End

Simulation
  Max Output Level = 5
  Coordinate System = Cartesian 3D
  Simulation Type = Steady
!  Simulation Type = Scanning
!  Timestep Sizes = 1
!  Timestep Intervals = 1
!  Timestep Intervals = 20
  Output Intervals = 1
  Steady State Max Iterations = 1
  Post File = "with_beams.vtu"
End

Body 1
  Equation = 1
  Material = 1
  Body Force = 1
End

Body 2
  Equation = 1
  Material = 2
!  Body Force = 1
End

Material 1
 Poisson Ratio = Real 0.0
 Youngs Modulus = Real 1.2e+6
 Shell Thickness = Real 1.0e-1
End

Material 2
 Youngs Modulus = Real 1.2e+6
 Shear Modulus = Real 1.2e+6

 ! Specify basis where the cross section parameters are expressed: 
 Director(3) = Real 0.0 0.0 1.0

 ! Specify I_k (here I_3 will have no effect)
 Second Moment of Area 2 = Real 8.33e-5
 Second Moment of Area 3 = Real 8.33e-5
 ! Specify A:
 Cross Section Area = Real 1.0e-2
 ! Specify J_T:
 Torsional Constant = Real 8.33e-5
 ! The density is used only in transient cases:
 Density = 2700.0
End


Body Force 1 
  Normal Pressure = Real 0.0
End

Equation 1 :: Active Solvers(1) = 1

! -------------------------------------------------------------------------
! Note that there is no surface tractions applied and we adjust the stopping
! criterion for the linear solver (cf. Linear System Componentwise Backward Error)
! so that the smallness of the norm of the RHS vector does not cause troubles 
! in getting the convergence.
!---------------------------------------------------------------------------
Solver 1
  Equation = "Shell equations"
  Procedure = "ShellSolver" "ShellSolver"

  Large Deflection = True
  Displace Mesh = True
  Nonlinear System Max Iterations = 40
  Nonlinear System Convergence Tolerance = 1e-7

  Linear System Solver = "Iterative"
  Linear System Preconditioning = Diagonal
  Linear System Max Iterations = 1000
  Linear System Componentwise Backward Error = True
  Linear System Convergence Tolerance = 1e-7
  Linear System Iterative Method = GCR
  Linear System GCR Restart = 100
  Linear System Abort Not Converged = False
  Steady State Convergence Tolerance = 1e-09
End

Solver 2
  Equation = "Save Scalars"
  Exec Solver = After Timestep
  Procedure = "SaveData" "SaveScalars"
!  Filename = cantilever.dat
  Variable 1 = U
  Save Points(2) = 17 34
End

! ----------------------------------------------------
! BCs are defined with respect the global XYZ system:
! ----------------------------------------------------

Boundary Condition 1
  Target Boundaries(1) = 4
  U 1 = Real 0
  U 2 = Real 0
  U 3 = Real 0
  DNU 1 = Real 0
  DNU 2 = Real 0
  DNU 3 = Real 0
End

Boundary Condition 2
  Target Nodes(2) = 17 34
  U 3 Load = Variable Time
    Real MATC "2*0.05*tx"
End

!
! Beam ends:
!
Boundary Condition 3
  Target Nodes(2) = 35 36
  U 1 = Real 0
  U 2 = Real 0
  U 3 = Real 0
  DNU 1 = Real 0
  DNU 2 = Real 0
  DNU 3 = Real 0
End


Solver 1 :: Reference Norm = Real 2.08683177E-04
Solver 1 :: Reference Norm Tolerance = Real 1.0e-5
