! Just creates a variable on IP points and computes some values to it
! using the "update exported variables" and body force definitions. 
!
! This is a masked version of the variable.
! Initial conditions are set for the ip variable.
!
! P.R. 9.7.2021

Header
  CHECK KEYWORDS Warn
  Mesh DB "." "square"
  Include Path ""
  Results Directory ""
End

Simulation
  Max Output Level = 5

  Coordinate System = "Cartesian"
  Simulation Type = "Steady State"
  Steady State Max Iterations = 1
  Output Intervals = 1

  Post File = "case.vtu"
End


Body 1
  Name = "Body"
  Body Force = 1
  Equation = 1
  Material = 1
  Initial Condition = 1
End


Equation 1
  Name = "Equations"
  Active Solvers(2) = 1 2
End


Solver 1
  Equation = "Heat Equation"
  Variable = "Temperature"

  Procedure = "HeatSolveVec" "HeatSolver"
  
  Linear System Solver = "Iterative"
  Linear System Iterative Method = "BiCGStab"
  Linear System Max Iterations = 1000
  Linear System Convergence Tolerance = 1.0e-08
  Linear System Abort Not Converged = True
  Linear System Preconditioning = "ILU0"
  Linear System Residual Output = 1
  Steady State Convergence Tolerance = 1.0e-05
  Stabilize = True
  Nonlinear System Convergence Tolerance = 1.0e-05
  Nonlinear System Max Iterations = 1
  Nonlinear System Newton After Iterations = 3
  Nonlinear System Newton After Tolerance = 1.0e-02
  Nonlinear System Relaxation Factor = 1.0

! These are used to create a variable 
  Exported Variable 1 = -ip "ip x"
  Exported Variable 2 = -ip "ip y"
  Exported Variable 3 = -ip "ip sum"
End


Material 1
  Name = "Material"
  Density = 1
  Heat Conductivity = 1.0
End
 

Initial Condition 1
  Name = "InitializeCoords"
  Ip x = Equals "Coordinate 1"
  Ip y = Equals "Coordinate 2"
  Ip sum = Variable "Coordinate"
    Real MATC "tx(0)+tx(1)"
End

Body Force 1
  Name = "BodyForceA"
  Heat Source = 1
End


Boundary Condition 1
  Name = "Down"
  Target Boundaries(1) = 1 
  Temperature = 0
End

Boundary Condition 2
  Name = "Right"
  Target Boundaries(1) = 2 
!  Heat Flux = Variable "Coordinate 1"
  Heat Flux = Variable "ip x, ip y"
    MATC "0.75*tx(0)*tx(1)"
End

Boundary Condition 3
  Name = "Up"
  Target Boundaries(1) = 3 
!  Heat Flux = Equals "coordinate 1"
  Heat Flux = Equals "ip x"
End

Boundary Condition 4
  Name = "Left"
  Target Boundaries(1) = 4 
!  Heat Flux = Variable "coordinate 2"
  Heat Flux = Variable "ip y"
    Real
      0.0 0.0
      1.0 -3.0
    End 
End


Solver 1 :: Reference Norm = 3.45310018E-01
