Header
  Mesh DB "." "tube" 
End

Simulation
  Frequency = Real 1000
!  Coordinate System = String Cartesian 2D
  Coordinate System = String Axi Symmetric
  Simulation Type = String Steady State
  Steady State Max Iterations = Integer 1
  Steady State Min Iterations = Integer 1
!  Post File = File "ref.ep" 
End

Constants

End

Body 1
  Equation = Integer 1
  Material = Integer 1
End

Material 1
  Heat Conductivity = 2.6e-2
  Specific Heat = 717.0
  Equilibrium Density = 1.21
  Specific Heat Ratio = 1.4
  Equilibrium Temperature = 293
  Viscosity = 1.82e-5
End

Equation 1
  Active Solvers(1) = 1
End

Solver 1
  Equation = "Harmonic NS"
  Variable = "Flow"
  Variable DOFs = 8
  Procedure = "Acoustics" "AcousticsSolver"
  Element = "p:1 b:1" 
  Bubbles in Global System = False
  Linear System Solver = Iterative
  Linear System Iterative Method = GCR
  Linear System GCR Restart = Integer 200
  Linear System Preconditioning = Ilu1
  Linear System Max Iterations = 1000
  Linear System Convergence Tolerance = 1e-10
  Linear System Scaling = Logical True
  Linear System Row Equilibration = Logical True 
  Linear System Abort Not Converged = False
  Linear System Residual Output = 10
End

Boundary Condition 1
  Target Boundaries(1) = Integer 1
  Re Velocity 1 = Real 0
  Im Velocity 1 = Real 0
  Re Velocity 2 = Variable Coordinate
	Real MATC "0.001*(1 - tx(0)/0.01)"
  Im Velocity 2 = Real 0
  Re Temperature = Real 0
  Im Temperature = Real 0
End

Boundary Condition 2
  Target Boundaries(2) = Integer 2 3
  Re Velocity 1 = Real 0
  Im Velocity 1 = Real 0
  Re Velocity 2 = Real 0
  Im Velocity 2 = Real 0
  Re Temperature = Real 0
  Im Temperature = Real 0
End

Boundary Condition 3
  Target Boundaries(1) = Integer 4
  Re Velocity 1 = Real 0
  Im Velocity 1 = Real 0
End

Solver 1 :: Reference Norm = Real 1.9565786
Solver 1 :: Reference Norm Tolerance = Real 1.0E-5

