! 
! Here Cook's membrane problem (state of plane strain) is solved by using 
! the compressible neo-Hookean material model subject to large deformation
!

Header
  Mesh DB "." "body"
End

Constants
End

Simulation
  Max Output Level = 5
  Coordinate System = Cartesian 2D
  Simulation Type = Steady State
  Steady State Max Iterations = 1
  Steady State Min Iterations = 1
  Output Intervals = 1
! Output File = "elasticity.result"
! Post File = "elasticity.vtu"
End

Body 1
  Equation = 1
  Material = 1
End

Material 1
  Density = 1.0
  Youngs Modulus = 200.0
  Poisson Ratio = 0.35
End

Solver 1
  Equation = Elasticity Solver
  Variable = Displacement
  Variable DOFs = 2
  Procedure = "ElasticSolve" "ElasticSolver"
  Neo-Hookean Material = True
  Displace Mesh = False

  Linear System Solver = Direct
!  Linear System Direct Method = UMFPack

!  Linear System Solver = Iterative
!  Linear System Iterative Method = BiCGStab
!  Linear System Preconditioning = ILU2
!  Linear System Max Iterations = 500
!  Linear System Convergence Tolerance = 1.0e-8
!  Linear System Residual Output = 20

!  Nonlinear System Newton After Tolerance = 1.0e-3
!  Nonlinear System Newton After Iterations = 20
  Nonlinear System Max Iterations = 20
  Nonlinear System Convergence Tolerance = 1.0e-5
  Nonlinear System Convergence Measure = Residual
  Nonlinear System Relaxation Factor = 1.0
  Steady State Convergence Tolerance = 1.0e-4

End

Solver 2 
  Equation = SaveScalars
  Procedure = "SaveData" "SaveScalars"
!  Filename = f.dat
  Save Coordinates(1,3) = 48.0 60.0 0.0
End

Equation 1
  Active Solvers(2) = 1 2
End

Boundary Condition 1
  Target Boundaries(1) = 1
  Displacement 1 = 0
  Displacement 2 = 0
End

Boundary Condition 2
  Target Boundaries(1) = 2
  Pseudo-Traction = True
  Surface Traction 2 = Real 4.0
End

Solver 1 :: Reference Norm = Real 2.0045949
Solver 1 :: Reference Norm Tolerance = Real 1.0E-5
