! Test case for master-slave partitiong in the library.
!
! Zoltan library interface (by Joe) used to make the partitioning.
! Number of partitions automatically follow number of partitions
! when calling with 'mpirun -np #np ElmerSolver_mpi', for example. 
!
! P.R. 12.12.2018 

Header
  CHECK KEYWORDS Warn
  Mesh DB "." "angle"
  Include Path ""
  Results Directory ""
End

Simulation
  Max Output Level = 7

  Coordinate System = "Cartesian"
  Coordinate Mapping(3) = 1 2 3

  Simulation Type = "Steady State"
  Steady State Max Iterations = 1
  Output Intervals = 1

  Partition Mesh = Logical True
  Partitioning Method = String "Zoltan"
!  Number of Partitions = Integer 8
End

Constants
  Gravity(4) = 0 -1 0 9.82
  Stefan Boltzmann = 5.67e-08
End

Body 1
  Name = "Body"
  Body Force = 1
  Equation = 1
  Material = 1
End

Equation 1
  Name = "Equations"
  Active Solvers(1) = 1
End

Solver 1
  Equation = "Heat Equation"
  Variable = "Temperature"
  
  Linear System Solver = "Direct"
  Linear System Direct Method = "MUMPS"

!  Linear System Solver = "Iterative"
  Linear System Iterative Method = "BiCGStab"
  Linear System Max Iterations = 1000
  Linear System Convergence Tolerance = 1.0e-08
  Linear System Abort Not Converged = True
  Linear System Preconditioning = "ILU0"
  Linear System Residual Output = 1
  Steady State Convergence Tolerance = 1.0e-05
  Stabilize = False
  Nonlinear System Max Iterations = 1
  Optimize Bandwidth = False

  NonLinear System Consistent Norm = True

! These can be used for debugging purposes mainly
! Linear System Save = True
! Save parallel mesh info = Logical True
! SSave parallel matrix info = Logical True
End


Solver 2
  Equation = "ResultOutput"
  Procedure = "ResultOutputSolve" "ResultOutputSolver"
  Output File Name = "case" 

  Save Geometry Ids = Logical True
  Vtu format = Logical True
End



Material 1
  Name = "Material"
  Density = 1
  Heat Conductivity = 1
End

Body Force 1
  Name = "BodyForce"
  Heat Source = 1
End

Boundary Condition 1
  Name = "Constraint"
  Target Boundaries(1) = 1 
  Temperature = 0
End


Solver 1:: Reference Norm = 8.25877829E-02

!End Of File
