! This test case uses a facet shell model to approximate shell deformation.
! For shell modeling consider using the module ShellSolver instead!  

Header
  Mesh DB "." "shell"
End

Constants
End

Simulation
  Max Output Level = 5
  Coordinate System = Cartesian 2D
  Simulation Type = Steady State
  Steady State Max Iterations = 1
  Output Intervals = 1
! Post File = "shell.ep"
! Output File = "shell.dat"
End

Body 1
  Equation = 1
  Material = 1
  Body Force = 1
End

Material 1
   Density = 7800
   Thickness = 0.01
   Youngs Modulus = 70e9
   Poisson Ratio = 0.3
End

Body Force 1
  Normal Pressure = Real 1e6
End

Solver 1
  Equation = Shell Solver
  Procedure = "FacetShellSolve" "ShellSolver"
  Linear System Solver = Iterative
  Linear System Max Iterations = 500
  Linear System Iterative Method = BiCGStab
  Linear System Preconditioning = ILU0
  Linear System Convergence Tolerance = 1.0e-8
  Nonlinear System Newton After Tolerance = 1.0e-3
  Nonlinear System Newton After Iterations = 20
  Nonlinear System Max Iterations = 1
  Nonlinear System Convergence Tolerance = 1.0e-5
  Nonlinear System Relaxation Factor = 1.0
  Steady State Convergence Tolerance = 1.0e-6
End

Equation 1
  Active Solvers(1) = 1
End

Boundary Condition 1
  Target Boundaries(1) = 1
  Deflection 1 = Real 0
  Deflection 2 = Real 0
  Deflection 3 = Real 0
  Deflection 4 = Real 0
  Deflection 5 = Real 0
  Deflection 6 = Real 0
End

Solver 1 :: Reference Norm = Real 0.339311018401
Solver 1 :: Reference Norm Tolerance = Real 1e-4
RUN
