Header
  Mesh DB "." "plates"
End

Constants
End

Simulation
  Max Output Level = 5
  Coordinate System = Cartesian 2D
  Simulation Type = Steady State
  Steady State Max Iterations = 1
  Output Intervals = 1
! Output File = "plates.result"
! Post File = "plates.ep"
End

Body 1
  Equation = 1
  Material = 1
  Body Force = 1
End

Material 1
   Density = 7800
   Thickness = 0.01
   Youngs Modulus = 70e9
   Poisson Ratio = 0.3
End

Body Force 1
  Pressure = 1e6
End

Solver 1
  Equation = Plate Solver
  Procedure = "Smitc" "SmitcSolver"
  Linear System Solver = Iterative
  Linear System Max Iterations = 500
  Linear System Iterative Method = BiCGStab
  Linear System Preconditioning = ILU0
  Linear System Convergence Tolerance = 1.0e-10
  Nonlinear System Newton After Tolerance = 1.0e-3
  Nonlinear System Newton After Iterations = 20
  Nonlinear System Max Iterations = 1
  Nonlinear System Convergence Tolerance = 1.0e-5
  Nonlinear System Relaxation Factor = 1.0
  Steady State Convergence Tolerance = 1.0e-6
End

Equation 1
  Active Solvers(1) = 1
End

Boundary Condition 1
  Target Boundaries(1) = 1
  Deflection 1 = 0  ! z-deflection
  Deflection 2 = 0  ! x-rotation
  Deflection 3 = 0  ! y-rotation
End

Solver 1 :: Reference Norm = Real 0.478813167574
Solver 1 :: Reference Norm Tolerance = Real 1.0e-3
RUN
