Header
  Mesh DB "." "Step"
  Include Path ""
  Results Directory ""
End


Simulation
  Max Output Level = 5
  Coordinate System =  Cartesian 2D
  Coordinate Mapping(3) = 1 2 3

  Simulation Type = Steady
  Steady State Max Iterations = 20

  Output Intervals = 1
! Post File = "Step.ep"
! Output File = "Step.dat"
End


Constants
  Gravity(4) = 0 -1 0 9.82
  Stefan Boltzmann = 5.67e-8
End


Body 1
  Name = "Body1"
  Equation = 1
  Material = 1
End


Equation 1
  Name = "Equation1"
   Navier-Stokes = True
End


Solver 1
   Equation = "Navier-Stokes"

   Linear System Solver = Iterative
   Linear System Iterative Method = BiCGStab
   Linear System Max Iterations = 500

   Linear System Convergence Tolerance = 1.0e-8
   Linear System Preconditioning = ILU0
   Linear System Residual Output = 1
   Steady State Convergence Tolerance = 1.0e-5
   Stabilize = True

   Nonlinear System Convergence Tolerance = 1.0e-5
   Nonlinear System Max Iterations = 5
   Nonlinear System Newton After Iterations = 3
   Nonlinear System Newton After Tolerance = 1.0e-2
   Nonlinear System Relaxation Factor = 1.0

  Adaptive Mesh Refinement = TRUE
  Adaptive Remesh = FALSE
  Adaptive Error Limit = 0.005
End


Material 1
  Name = "Material1"
  Density = 1
  Viscosity = 0.1
End

Boundary Condition 1
  Name = "Constraint2"

  Target Boundaries = 1

   Velocity 1 = 1
   Velocity 2 = 0
End

Boundary Condition 2
  Name = "Constraint2"
  Target Boundaries = 2

   Pressure = 0
   Velocity 2 = 0
End

Boundary Condition 3
  Name = "Constraint3"
  Target Boundaries = 3

   Velocity 1 = 0
   Velocity 2 = 0
End

Solver 1 :: Reference Norm = Real 0.450317
Solver 1 :: Reference Norm Tolerance = Real 5e-3
RUN
