! Test case for functions with constant parameters.
!
! P.R. 24.11.2020

Check Keywords warn

Header
  Mesh DB "." "spots"
  Include Path ""
  Results Directory ""
End

Simulation
  Max Output Level = 5
  Coordinate System = String Cartesian
  Simulation Type = Transient
  Timestep Intervals = 50
  Timestep Sizes = 0.2
  Timestepping Method = implicit euler
  Steady State Max Iterations = 1
  Output Intervals = 0
  Post File = "case.vtu"
End

Constants
  Stefan Boltzmann = 1.0
End

Body 1
  Name = "Body1"
  Equation = 1
  Material = 1
End

Body 2
  Name = "Body2"
  Body Force = 1
  Equation = 1
  Material = 1
End

Body 3
  Name = "Body3"
  Body Force = 2
  Equation = 1
  Material = 1
End

Body 4
  Name = "Body4"
  Body Force = 3
  Equation = 1
  Material = 1
End

Body 5
  Name = "Body5"
  Body Force = 4
  Equation = 1
  Material = 1
End

Equation 1
  Name = "Equation"
  Active Solvers = 1
End

Material 1
  Name = "Unity"
  Density = Real 1
  Heat Conductivity = Real 1
  Heat Capacity = Real 1.0
End

! Four body forces with alternating second parameter
Body Force 1
  Name = "Heater1"
  Heat Source = Variable "time, 1"
    Procedure "MySource" "MySource"
End

Body Force 2
  Name = "Heater2"
  Heat Source = Variable "time, 2.01020304"
    Procedure "MySource" "MySource"
End

! Does the constant parameter work with MATC preprocessing as well?
$a=3
Body Force 3
  Name = "Heater3"
  Heat Source = Variable "time, $a$"
    Procedure "MySource" "MySource"
End

$b=4.01
Body Force 4
  Name = "Heater4"
  Heat Source = Variable "time, $b$"
    Procedure "MySource" "MySource"
End


Solver 1
  Equation = Heat Equation
  Procedure = "HeatSolve" "HeatSolver"
  Variable = Temperature
  Linear System Solver = Iterative
  Linear System Iterative Method = BiCGStab
  Linear System Max Iterations = 500
  Linear System Convergence Tolerance = 1.0e-08
  Linear System Preconditioning = ILU0
  Linear System Residual Output = 0
  Linear System Abort Not Converged = False

  Nonlinear System Max Iterations = 1
  Nonlinear System Relaxation Factor = 1.0
End


Boundary Condition 1
  Name = "Sides"
  Target Boundaries = 1
  Temperature = Real 0
End


Solver 1 :: Reference Norm = 1.71409182E-01


