! Init for 2D vector potential.
!
! P.R. 27.1.2022

Check Keywords "Warn"

Header
  Mesh DB "." "quads"
!  Results Directory "results"
End

Simulation
  Max Output Level = 10
  Coordinate System = "Cartesian"
  Simulation Type = Steady
  Steady State Max Iterations = 1
  Output Intervals(1) = 1

  Single Mesh = True

  Output File = "az.dat"
  output variable 1 = az
!  output variable 2 = lagrangemultiplier
End

Body 1
  Name = "Wire"
  Equation = 1
  Material = 1
  Body Force = 1
End

Body 2
  Name = "Air"
  Equation = 1
  Material = 1
End

Material 1
  Name = "Ideal"
  Relative Permittivity = 1.0
  Relative Permeability = 1.0
  Electric Conductivity = 0.0
End 

Equation 1
  Active Solvers(2) = 1 2 
End


Solver 1
  Equation = "MGDynamics2D"

  Variable = "Az"
  Procedure = "MagnetoDynamics2D" "MagnetoDynamics2D"

  Linear System Solver = "Iterative"
  Linear System Preconditioning = none
  Linear System Residual Output = 10
  Linear System Max Iterations = 1000
  Linear System Iterative Method = GCR
  Linear System Convergence Tolerance = 1.0e-8
  BicgStabl Polynomial Degree = 4

  Nonlinear System Consistent Norm = True
End


Solver 2
  Equation = "MGDynamicsCalc"

  Procedure = "MagnetoDynamics" "MagnetoDynamicsCalcFields"

  Calculate Current Density = Logical True
  Calculate Electric Field = Logical True
  Calculate Magnetic Field Strength = Logical True
  Calculate Joule Heating = True

  Linear System Solver = "Iterative"
  Linear System Preconditioning = None
  Linear System Residual Output = 0
  Linear System Max Iterations = 5000
  Linear System Iterative Method = CG
  Linear System Convergence Tolerance = 1.0e-8

  Calculate Nodal Fields = True
  
  Impose Body Force Potential = Logical True
  Impose Body Force Current = Logical True

  Discontinuous Bodies = True
End


Solver 3
  Exec Solver = After all 
  Equation = "ResultOutput"
  Procedure = "ResultOutputSolve" "ResultOutputSolver"
  Output File Name = az
  Vtu format = Logical True
  Save Geometry Ids = True
  Discontinuous Bodies = Logical True
End

Solver 4
  Exec Solver = after all
  Equation = "SaveScalars"
  Procedure = "SaveData" "SaveScalars"

  Filename = f.dat
  Show Norm Index = 2 

  Variable 1 = magnetic vector potential 3
  Variable 2 = magnetic field strength
  Operator 1 = max abs
  Operator 2 = max abs
End


Body Force 1
  Current Density = 1.0e6
End

Boundary Condition 1
  Name = "Symmetry"
  Target Boundaries(2) = 1 2  
End


Boundary Condition 2
  Name = "AirSurface"
  Target Boundaries(1) = 3

  Az = Real 0.0
End

Solver 1 :: Reference Norm = 1.0