Check Keywords Warn

Header
  Mesh DB "." "Step"
End

Simulation
  Max Output Level = 5
  Coordinate System = Cartesian 2D
  Simulation Type = Steady
  Steady State Max Iterations = 1
! Output File = "els.result"
! Post File = "els.ep"
End

Constants
  Permittivity Of Vacuum = 8.8542e-12
End

Body 1
  Equation = 1
  Material = 1
  Body Force = 1
End

Equation 1
  Active Solvers = 1
End

Solver 1
  Equation = Electrostatics
  Variable = Potential
  Variable DOFs = 1
  Procedure = "StatElecSolve" "StatElecSolver"

  Linear System Solver = Direct
  Linear System Direct Method = UMFPack
  Linear System Iterative Method = BiCGStab
  Linear System Preconditioning = ILU1
  Linear System Max Iterations = 500
  Linear System Convergence Tolerance = 1.0e-8
  Nonlinear System Newton After Tolerance = 1.0e-3
  Nonlinear System Newton After Iterations = 20
  Nonlinear System Max Iterations = 1000
  Nonlinear System Convergence Tolerance = 1.0e-5
  Nonlinear System Relaxation Factor = 1.0
  Steady State Convergence Tolerance = 1.0e-4
End

Material 1
  Relative Permittivity = 1
End

Body Force 1
  Charge density = 2e-6
End

Boundary Condition 1
  Target Boundaries(6) = 1 2 3 4 5 6
  Potential = 0
End

Solver 1 :: Reference Norm = Real 795.505441096
RUN

!End Of File

