! Test different operators of SaveScalars on a simple heat equation 
! This one tests the boundary operators and their masking.
! For this purpose the SaveScalars includes a tailored output feature

Header
  CHECK KEYWORDS Warn
  Mesh DB "." "cube"
End

Simulation
  Max Output Level = 5
  Coordinate System = "Cartesian"

  Simulation Type = "Steady State"
  Steady State Max Iterations = 1
  Output Intervals = 1

!  Post File = "TempDist.ep"
End

Constants
  Gravity(4) = 0 -1 0 9.82
  Stefan Boltzmann = 5.67e-08
End

Body 1
  Name = "Body1"
  Body Force = 1
  Equation = 1
  Material = 1
End


Equation 1
  Name = "Equation1"
  Heat Equation = True
End

Solver 1
  Exec Solver = "Always"
  Equation = "Heat Equation"
  Variable = "Temperature"
  Variable Dofs = 1
  Linear System Solver = "Iterative"
  Linear System Iterative Method = "BiCGStab"
  Linear System Max Iterations = 500
  Linear System Convergence Tolerance = 1.0e-12
  Linear System Abort Not Converged = True
  Linear System Preconditioning = "ILU0"
  Linear System Residual Output = 10
  Steady State Convergence Tolerance = 1.0e-05
  Nonlinear System Convergence Tolerance = 1.0e-05
  Nonlinear System Max Iterations = 1
  Nonlinear System Newton After Iterations = 3
  Nonlinear System Newton After Tolerance = 1.0e-02
  Nonlinear System Relaxation Factor = 1.0
End


Solver 2 
  Equation = SaveScalars
  Procedure = "SaveData" "SaveScalars"
  Filename = f.dat
  Show Norm = True
  Show Norm Index = 1

  Variable 1 = Temperature
  Operator 1 = Volume
End


Material 1
  Name = "Material1"
  Density = 1
  Heat Conductivity = 1.0
End

Body Force 1
  Name = "BodyForce1"
  Heat Source = 1
End

Boundary Condition 1
  Name = "Zero"
  Target Boundaries(1) = 1
  Temperature = 0

  Save Scalars = True
End

Boundary Condition 2
  Name = "Lower"
  Target Boundaries(1) = 2
  Temperature = 0

  Lower = Logical True
End

Boundary Condition 3
  Name = "Upper"
  Target Boundaries(1) = 3

  Upper = Logical True
End




Solver 2 :: Reference Norm = Real 1.0
Solver 2 :: Reference Norm Tolerance = Real 1e-4
RUN

Solver 2 :: Reference Norm = Real 4.0
Solver 2 :: Reference Norm Tolerance = Real 1e-4
Solver 2 :: Operator 1 = Area
RUN

Solver 2 :: Reference Norm = Real 1.0
Solver 2 :: Reference Norm Tolerance = Real 1e-4
Solver 2 :: Operator 1 = Area
Solver 2 :: Mask Name 1 = String "Upper"
RUN

Solver 2 :: Reference Norm = Real 0.69637759E-01
Solver 2 :: Reference Norm Tolerance = Real 1e-4
Solver 2 :: Operator 1 = max
Solver 2 :: Mask Name 1 = String "Upper"
RUN

!End Of File
