! Test case for MarchingODESolver.
! Structured mesh is detected in x-direction.
! We integrate over x and should get 0.5 as max value.
!
! Compared to base case this is transient i.e. we integrate
! one mesh size at a time. 
!
! This one involves reduced basis DG. 
!
! P.R. 25.8.2020

$v0=1.0
$h=0.1

Check Keywords "Warn"

Header
  Mesh DB "." "rectangles"
End

Simulation
  Max Output Level = 5
  Coordinate System = Cartesian
  Simulation Type = Steady State

  Output Intervals(1) = 1
  Steady State Max Iterations = 1

  Post File = "case.vtu"
  vtu: discontinuous bodies = Logical True
  vtu: Reference Values(6) = Real 37 4 924 1153 109354 93.5
  vtu: Reference Norm = Real 1.0


End

Constants
  Stefan Boltzmann = 5.67e-8
End 

Body 1
  Equation = 1
  Material = 1
  Initial Condition = 1
  Body Force = 1
End

Body 2
  Equation = 2
  Material = 2
End

Body Force 1
  March This = Logical True
End 

Equation 1
  Active Solvers(2) = 1 2
End 

Equation 2
  Active Solvers(1) = 1 
End 


Initial Condition 1
  Name = "Guess"
  Integrator = Real 0.0
  Temperature = Equals "Coordinate 1"
    
End 

Material 1
  Name = "Material1"
  Integrator: Source = Equals "Temperature" !Coordinate 1"
  Heat Conductivity = 1.0
End

Material 2
  Name = "Material2"
  Heat Conductivity = 1.0
End

Solver 1
  Equation = "Heat"
  Variable = "Temperature"
  Procedure = "HeatSolveVec" "HeatSolver"

  Linear System Solver = "Direct"
  Linear System Direct Method = "umfpack"

  Steady State Convergence Tolerance = 1.0e-5

  Stabilize = True

  Discontinuous Galerkin = Logical True
  DG Reduced Basis = Logical True
  DG Reduced Basis Master Bodies(1) = Integer 1 

  Nonlinear System Max Iterations = 1
  Exec Solver = never
End


Solver 2
  Exec Solver = always
  Equation = "MarchingOde"
  Procedure = "MarchingODESolver" "MarchingODESolver"

! Detects sctructured mesh in x-direction
  Active Coordinate = Integer 1

! This gives 2nd order accuracy
  Newmark Beta = Real 0.5 

  Draw Velocity = Real $v0

! The name of the target field
  Variable = Integrator 

  Mapping Mask Name = String "March This"
End

Boundary Condition 1
  Name = "Bot"
  Target Boundaries(1) = 1
!  Temperature = 0.0
End

Boundary Condition 2
  Name = "Middle" 
  Target Boundaries(1) = 3

  Heat Gap = Logical True
  Heat Gap Coefficient = Real 10.0
End

Boundary Condition 3
  Name = "Top"
  Target Boundaries(1) = 6
!  Temperature = 1.0
End

Boundary Condition 4
  Name = "Sides"
  Target Boundaries(4) = 2 4 5 7
End



Solver 2 :: Reference Norm = 1.63012505E-01


