Header
  Mesh DB "." "verkko.gid"
End

Constants
End

Simulation
  Max Output Level = 5
  Coordinate System = String Cartesian 2D
  Simulation Type = Steady State
  Steady State Min Iterations = 1
  Steady State Max Iterations = 1
! Output File = File "esim1.result"
! Post File = File "esim1.ep"
End

Body 1
  Equation  = 1
  Material = 1
End

Body Force 1
End

Material 1
  Density = Real 1
  Youngs Modulus = Real 1
  Poisson Ratio = Real 0.3
End

Equation 1
  Active Solvers(3) = 1 2 3
  Plane Stress = FALSE
End

Solver 1
  Equation = "Crack Propagation"
  Procedure = "StressSolve" "StressSolver"
  Variable = String "Shape Displacement"
  Variable DOFs = Integer 2
  Calculate Stresses = TRUE
  Displace Mesh = Logical FALSE

  Linear System Solver = Direct
  Linear System Symmetric = Logical True
  Linear System Scaling = Logical False
  Linear System Iterative Method = BiCGStab
  Linear System Direct Method = UMFPACK
  Linear System Convergence Tolerance = 1.0e-8
  Linear System Max Iterations = 200
  Linear System Preconditioning = ILU2

  Nonlinear System Convergence Tolerance = 1.0e-7
  Nonlinear System Max Iterations = 1
  Nonlinear System Relaxation Factor = 1

  Steady State Convergence Tolerance= 1.0e-6

  Optimize Bandwidth = True
End

Solver 2
  Equation = "Elasticity Analysis"
  Procedure = "StressSolve" "StressSolver"
  Variable = String "True Displacement"
  Variable DOFs = Integer 2
  Time Derivative Order = 2

  Calculate Stresses = TRUE
  Displace Mesh = Logical FALSE
 
  Linear System Solver = Direct
  Linear System Symmetric = Logical True
  Linear System Scaling = Logical False
  Linear System Direct Method = UMFPACK
  Linear System Iterative Method = BiCGStab
  Linear System Convergence Tolerance = 1.0e-8
  Linear System Max Iterations = 200
  Linear System Preconditioning = ILU2

  Nonlinear System Convergence Tolerance = 1.0e-7
  Nonlinear System Max Iterations = 1
  Nonlinear System Relaxation Factor = 1

  Steady State Convergence Tolerance= 1.0e-6

  Optimize Bandwidth = True
End

Solver 3
  Equation = "Compute Energy Release Rate"
  Procedure = "EnergyRelease" "ReleaseRateSolver"
End

! Alareuna
!----------
Boundary Condition 1              ! Reunaehdon numero (Elmer)
  Target Boundaries(1) = 1        ! Reunan numero (GiD)
  True Displacement 1 = Real 0    ! Siirtymän x-komoponentti
  True Displacement 2 = Real 0    !    -"-    y-komoponentti
  Shape Displacement 1 = Real 0   !    -"-    x-komoponentti
  Shape Displacement 2 = Real 0   !    -"-    y-komoponentti
End

! Oikea reuna
!-------------
Boundary Condition 2
  Target Boundaries(1) = 2
  Shape Displacement 1 = Real 0
  Shape Displacement 2 = Real 0
End

! Ylareuna
!---------
Boundary Condition 3
  Target Boundaries(1) = 3
  Normal Force = Real 1.0
  Shape Displacement  1 = Real 0
  Shape Displacement  2 = Real 0
End

! Vasen reuna
!------------
Boundary Condition 4
  Target Boundaries(1) = 4
  Shape Displacement  1 = Real 0
  Shape Displacement  2 = Real 0
End

! Särön kylki
!-------------
Boundary Condition 5
  Target Boundaries(1) = 5
  Shape Displacement  1 = Variable Coordinate 1; real; 0 0 ; 5 1; End
!   Real
!     0.0 0.0
!     5.0 1.0
!   End
  Shape Displacement  2 = Real 0
End

Solver 2 :: Reference Norm = Real 21.9639953451
Solver 2 :: Reference Norm Tolerance = Real 1e-4
RUN
