Header
  CHECK KEYWORDS Warn
  Mesh DB "." "beam3d"
  Include Path ""
  Results Directory ""
End

Simulation
! Max Output Level = 5
  Output Caller = True

  Coordinate System = "Cartesian 3D"
  Coordinate Mapping(3) = 1 2 3

  Simulation Type = "Steady State"
  Steady State Max Iterations = 1
  Steady State Min Iterations = 1
  Output Intervals = 1

! Output File = "beam3d.dat"
! Post File = "beam3d.ep"
End

Constants
  Gravity(4) = 0 -1 0 9.82
  Stefan Boltzmann = 5.67e-08
End

Body 1
  Name = "Body1"

  Equation = 1
  Material = 1
End

Equation 1
  Name = "Equation1"

  Active Solvers = 1
  Calculate Stresses = Logical False
End

Solver 1
  Equation = "Stress Analysis"
  Variable = "Displacement"
  Variable Dofs = 3

  Linear System Solver = "Iterative"
  Linear System Iterative Method = "BiCGStab"
  Linear System Max Iterations = 300
  Linear System Convergence Tolerance = 1.0e-08
  Linear System Abort Not Converged = True
  Linear System Preconditioning = "ILU1"
  Linear System Residual Output = 20
  Steady State Convergence Tolerance = 1.0e-05

  Nonlinear System Convergence Tolerance = 1.0e-05
  Nonlinear System Max Iterations = 1
  Nonlinear System Newton After Iterations = 3
  Nonlinear System Newton After Tolerance = 1.0e-02
  Nonlinear System Relaxation Factor = 1.0
  Time Derivative Order = 2
End


Material 1
  Name = "Material1"

!  Cartesian matrix:
!
  Youngs Modulus
  Size 6 6
    Real  165.7e3     63.9e3     63.9e3     0         0         0        \
          63.9e3      165.7e3    63.9e3     0         0         0        \
          63.9e3      63.9e3     165.7e3    0         0         0        \
          0         0        0        79.6e3      0         0        \
          0         0        0        0         79.6e3      0        \
          0         0        0        0         0         79.6e3     \
    End

!  The above rotated 45 deg about x-axis
!
!  Youngs Modulus
!  Size 6 6
!    Real  165.7e3     63.9e3     63.9e3     0         0         0        \
!          63.9e3      194.4e3    35.2e3    0         0         0        \
!          63.9e3      35.2e3     194.4e3    0         0         0        \
!          0         0        0        79.6e3      0         0        \
!          0         0        0        0         50.9e3      0        \
!          0         0        0        0         0         79.6e3     \
!    End

  Rotate Elasticity Tensor = Logical True

  Material Coordinates Unit Vector 1(3) = Real 1  0  0
  Material Coordinates Unit Vector 2(3) = Real 0  0.7071  0.7071
  Material Coordinates Unit Vector 3(3) = Real 0  -0.7071  0.7071


!  Youngs Modulus = 1.0e3
  Poisson Ratio = 0.3
  Density = 1.0
End

Boundary Condition 1
  Name = "wall_end"
  Target Boundaries(1) = 5

! The beam is fixed at the one end
  Displacement 1 = 0
  Displacement 2 = 0
  Displacement 3 = 0
End

Boundary Condition 2
  Target Boundaries = 4

  Normal Force = 10.0
End

Solver 1 :: Reference Norm = Real 0.259655
RUN
