! This is the same case as tutorial "Thermal Flow In Curved Pipe"
! except that only symmetric half is considered and settings have
! been optimized for speed.
! P.R. 16.11.2020

Header
  CHECK KEYWORDS Warn
  Mesh DB "." "curved_pipe_half"
  Include Path ""
  Results Directory ""
End

Simulation
  Max Output Level = 5
  Coordinate System = Cartesian
  Simulation Type = Steady state
  Steady State Max Iterations = 1
  Output Intervals = 1
  Post File = case.vtu
End

Constants
  Gravity(4) = 0 -1 0 9.82
  Stefan Boltzmann = 5.67e-08
  Permittivity of Vacuum = 8.8542e-12
  Boltzmann Constant = 1.3807e-23
  Unit Charge = 1.602e-19
End

Body 1
  Target Bodies(1) = 1
  Name = "Body 1"
  Equation = 1
  Material = 1
End

Body 2
  Target Bodies(1) = 2
  Name = "Body 2"
  Equation = 2
  Material = 2
End

Solver 1
  Equation = Navier-Stokes
  Procedure = "FlowSolve" "FlowSolver"
  Variable = Flow Solution[Velocity:3 Pressure:1]
  Stabilize = True
  Lumped Mass Matrix = False
  Optimize Bandwidth = True
  Steady State Convergence Tolerance = 1.0e-5
  Nonlinear System Convergence Tolerance = 1.0e-3
  Nonlinear System Max Iterations = 20
  Nonlinear System Newton After Iterations = 3
  Nonlinear System Newton After Tolerance = 1.0e-2
  Nonlinear System Relaxation Factor = 1
  Linear System Solver = Iterative
  Linear System Iterative Method = idrs
  Idrs Parameter = 6
  Linear System Max Iterations = 500
  Linear System Convergence Tolerance = 1.0e-8
  Linear System Preconditioning = ILU0
  Linear System Abort Not Converged = False
  Linear System Residual Output = 10
End


Solver 2
  Equation = Heat Equation
  Procedure = "HeatSolve" "HeatSolver"
  Variable = Temperature
  Stabilize = True
  Steady State Convergence Tolerance = 1.0e-5
  Nonlinear System Convergence Tolerance = 1.0e-8
  Nonlinear System Max Iterations = 1
  Linear System Solver = Iterative
  Linear System Iterative Method = BiCGStabl
  Linear System Max Iterations = 1000
  Linear System Convergence Tolerance = 1.0e-8
  Linear System Preconditioning = ILU1
  Linear System Abort Not Converged = False
  Linear System Residual Output = 10
End


Equation 1
  Name = "Heat and Flow"
  Convection = Computed
  Active Solvers(2) = 1 2
End

Equation 2
  Name = "Just Heat"
  Active Solvers(1) = 2
End

Material 1
  Name = "Water (room temperature)"
  Viscosity = 1.002e-3
  Heat expansion Coefficient = 0.207e-3
  Heat Conductivity = 0.58
  Sound speed = 1497.0
  Heat Capacity = 4183.0
  Density = 998.3
End

Material 2
  Name = "Iron (generic)"
  Heat expansion Coefficient = 11.8e-6
  Heat Conductivity = 80.2
  Sound speed = 5000.0
  Heat Capacity = 449.0
  Mesh Poisson ratio = 0.29
  Density = 7870.0
  Poisson ratio = 0.29
  Youngs modulus = 193.053e9
End

Boundary Condition 1
  Target Boundaries(1) = 1
  Name = "HotInFlow"
  Velocity 3 = Variable Coordinate
    Real MATC "100.0*(1.0e-4-tx(0)^2-tx(1)^2)"
!  Velocity 3 = Variable Coordinate
!    Real Procedure "InletVelo" "InletVelo"
  Velocity 1 = 0.0
  Velocity 2 = 0.0
  Temperature = 350
End

Boundary Condition 2
  Target Boundaries(1) = 2
  Name = "NoSlip"
  Noslip wall BC = True
End

Boundary Condition 3
  Target Boundaries(1) = 3
  Name = "Outflow"
  Velocity 3 = 0.0
  Velocity 2 = 0.0
  Normal-Tangential Velocity = True
End

Boundary Condition 4
  Target Boundaries(4) = 7 8 9 10 
  Name = "Symmetry"
  Velocity 2 = 0.0  
End

Solver 1 :: Reference Norm = 3.27319442E-03
Solver 2 :: Reference Norm = 3.49999960E+02