Check Keywords Warn

Header
  Mesh DB "." "elmesh"
End

Simulation
  Coordinate System = Cartesian 3D
  Simulation Type = Steady State
  Steady State Max Iterations = 1
!  Output File = "elstatics.result"
!  Post File = "elstatics.ep"
  Coordinate Scaling = 1.0e-6
End

Constants
  Permittivity Of Vacuum = 8.8542e-12
End

Body 1
  Equation = 1
  Material = 1
End

Equation 1
  Active Solvers(2) = 1 2
  Calculate Electric Energy = True
End

Solver 1
  Equation = Stat Elec Solver
  Variable = Potential
  Variable DOFs = 1
  Procedure = "StatElecSolve" "StatElecSolver"

  Calculate Electric Energy = True
  Calculate Electric Field = False
  Calculate Electric Flux = False

  Linear System Solver = Iterative
  Linear System Iterative Method = BiCGStab
  Linear System Max Iterations = 500
  Linear System Convergence Tolerance = 1.0e-10
  Linear System Preconditioning = ILU1
  Linear System ILUT Tolerance = 1.0e-03
  Linear System Residual Output = 10
  Nonlinear System Max Iterations = 1
  Nonlinear System Convergence Tolerance = 1.0e-4
  Nonlinear System Newton After Tolerance = 1.0e-3
  Nonlinear System Newton After Iterations = 10
  Nonlinear System Relaxation Factor = 1
  Steady State Convergence Tolerance = 1.0e-4
End

Solver 2
  Equation = Electric Force
  Procedure = "ElectricForce" "StatElecForce"
End

Solver 3
  Exec Solver = After All
  Equation = SaveScalars
  Procedure = "SaveData" "SaveScalars"
!  Filename = "scalars.dat"
End

Material 1
  Relative Permittivity = 1.0
End

Boundary Condition 1
  Target Boundaries = 4
  Potential = 0.0
  Calculate Electric Force = True
End

Boundary Condition 2
  Target Boundaries = 3
  Potential = 1.0e3
End

Solver 1 :: Reference Norm = Real 584.159
RUN


!End Of File

