Check Keywords "Warn"

Header
  Mesh DB "." "channel"
End

Simulation
  Max Output Level = 5
  Coordinate System = Cartesian

  Simulation Type = Steady

  Output Intervals(1) = 1
  Steady State Max Iterations = 1
  Post File   = "case.vtu"
  vtu: eigen analysis = logical True
  vtu: Eigen Vector Component = String "complex"


! Output File = "case.dat"

  Angular Frequency = 1
End

Body 1
  Equation = 1
  Body Force = 1
  Material = 1
  Initial Condition = 1
End

Initial Condition 1
End

Material 1 
  Reluctivity  = 1
  Permittivity = 1
  Electric Conductivity = 0
End

Body Force 1 :: Source = Real 0
Equation 1 :: Active Solvers(3) = 1 2 3

Solver 1
  Equation = "emwave solve"
  
  Variable = "a[a re:1 a im:1]"
  Procedure = "MagnetoDynamics" "WhitneyAVHArmonicSolver"

! Eigenmode plotting of scalar potential not good...
  Variable Output = False

  Electrodynamics Model = Logical True

  Eigen Analysis = True
  Eigen System Values = 10

  Eigen System Shift = Real 3
  Eigen System Convergence Tolerance = Real 1.0e-6

  Use Tree Gauge = False
  Linear System Solver = Direct

  Steady State Convergence Tolerance = 1e-09
End

Solver 2
  Equation = "emwave calc"

  Potential Variable = "a"
  Procedure = "MagnetoDynamics" "MagnetodynamicsCalcFields"

  Calculate Elemental Fields = True
  Calculate Nodal Fields = True
  
  Calculate Electric Field = Logical True
  Calculate Magnetic Vector Potential = Logical True

  Linear system Solver = Iterative
  Linear System Iterative Method = CG
  Linear System Residual Output = 100
  Linear System Max Iterations = 1000
  Linear System Convergence Tolerance = 1e-6

  Steady State Convergence Tolerance = 1e-09

  vtu style = logical true
End

Solver 3
  Equation = "save scalars"
  Procedure = "SaveData" "SaveScalars"

  Save Eigenfrequencies = Logical True
  Filename = f.dat

  Exec Solver = "after saving"
  Show Norm Index = 1
End 

Boundary Condition 1
  Target Boundaries(1) =1 
 
  a {e} = real 0
  a {e} 3 = real 1

  a re {e} = real 0
  a im {e} = real 0
End
 
Boundary Condition 2
  Target Boundaries(1) = 2
  a = real 0
  a re = real 0
  a im = real 0
End

Boundary Condition 4
  Target Boundaries(2) = 5 6
  a = real 0
  a {e} = real 0

  a re = real 0
  a im = real 0
  a re {e} = real 0
  a im {e} = real 0
End

! Test for 1st eigenvalue
Solver 3 :: Reference Norm = 1.98948403E-02

