Check Keywords Warn

Header
  Mesh DB "." "coat"
End

Constants
End

Simulation
  Max Output Level = 5
  Coordinate System = Axi Symmetric
  Simulation Type = Steady State
  Steady State Max Iterations = 30
  Output Intervals = 1
! Output File = "coat.result"
! Post File = "coat.ep"
End

Body 1
  Equation = 1
  Material = 1
End

Solver 1
  Equation = Navier-Stokes
  Stabilize = True
  Internal Move Boundary = Logical False
  Nonlinear System Max Iterations = 5
  Nonlinear System Convergence Tolerance = 1.0e-7
  Nonlinear System Newton After Iterations = 2
  Nonlinear System Newton After Tolerance = 1.0e-2
  Nonlinear System Relaxation Factor = 0.7
  Linear System Solver = Iterative
  Linear System Iterative Method = BiCGStab 
  Linear System Preconditioning = ILU1
  Linear System Max Iterations = 100
  Linear System Convergence Tolerance = 1.0e-10
  Steady State Convergence Tolerance = 1.0e-7
End

Solver 2
  Equation = "Free Surface Reduced"
  Procedure = "FreeSurfaceReduced" "FreeSurfaceReduced"
  Variable = Dx
  Variable DOFs = 1
  Nonlinear System Relaxation Factor = 0.7
  Nonlinear System Convergence Tolerance = 1.0e-3
  Steady State Convergence Tolerance = 1.0e-3
  Perform Mapping = Logical False
End

Solver 3
  Equation = Mesh Update
  Linear System Solver = Iterative 
  Linear System Iterative Method = BiCGSTAB
  Linear System Preconditioning = ILU
  Linear System Convergence Tolerance = 1.0e-12
  Linear System Max Iterations = 200
  Linear System Symmetric = True
  Steady State Convergence Tolerance = 1.0e-4
End
 
Solver 4 
  Equation = Fluidic Force
  Procedure = "FluidicForce" "ForceCompute"
  Calculate Viscous Force = Logical True
End
   
Solver 5
  Exec Solver = never
  Equation = SaveScalars
  Procedure = "SaveData" "SaveScalars"
  Filename = "scalars.dat"
  Operator 1 = String mean
  Variable 1 = String Pressure
  Operator 2 = String max
End 

Solver 6
!  Exec Solver = never
  Exec Solver = after all
  Equation = SaveLine
  Procedure = "SaveData" "SaveLine"
  Filename = "curve.dat"
End


Equation 1
  Active Solvers(4) = 1 2 3 4
End


Material 1
  Density = 1.0
  Viscosity = 1.0
  Poisson Ratio = 0.3
  Youngs Modulus = 1.0
End

Boundary Condition 1
  Name = "Symmetry"
  Target Boundaries = 1
  Velocity 2 = -10.0     ! The draw velocity
  Velocity 1 = 0.0
  Calculate Fluidic Force = Logical True
  Mesh Update 1 = 0.0
End

Boundary Condition 2
  Name = "Free"
  Target Boundaries = 2
  Mesh Update 1 = Equals Dx
  Mesh Update 2 = 0.0
  Free Surface Reduced = Logical True
  Save Line = Logical True
End

Boundary Condition 3
  Name = "Outlet"
  Target Boundaries = 3
  Velocity 1 = 0.0
  Mesh Update 2 = 0.0
End

Boundary Condition 4
  Name = "Inlet"
  Target Boundaries = 4
  Velocity 1 = 0.0
  Pressure = 0.0
  Mesh Update 2 = 0.0
End

Boundary Condition 5
  Name = "No-slip"
  Target Boundaries = 5
  Velocity 1 = 0.0
  Velocity 2 = 0.0
  Mesh Update 1 = 0.0
  Mesh Update 2 = 0.0
End


Solver 3 :: Reference Norm = Real 0.82854376E-04
Solver 3 :: Reference Norm Tolerance = Real 1.0e-4
RUN

!End






