! A simple test case for testing coordinate transformation from 
! cylindrical to cartesian coordinates.
! In this case the coordinate transformation is for the heat equation
! only.
! Test case authors: Peter Råback
! Test case created: 5.12.2012

Header
  CHECK KEYWORDS Warn
  Mesh DB "." "cylinder"
  Include Path ""
  Results Directory ""
End

Simulation
  Max Output Level = 5
  Coordinate System = "Cartesian"
  Simulation Type = "Steady State"

! Enforce two rounds to check for allocation errors
  Steady State Min Iterations = 2
  Steady State Max Iterations = 2
  Output Intervals = 0
!  Post File = "case.ep"

! Give coordinates in (x,y,phi) 
! First alter the order to (x,phi,y)
  Coordinate Mapping(3) = 1 3 2
End

Constants
  Gravity(4) = 0 -1 0 9.82
  Stefan Boltzmann = 5.67e-08
End

Body 1
  Name = "Body1"
  Body Force = 1
  Equation = 1
  Material = 1
End

Equation 1
  Name = "Equation1"
  Active Solvers(1) = 1
End


Solver 1
! Introduce local coordinate system for this particular solver
! Map the coordinates to half a toroid (x,z,y)
! The coordinate system is applied only to this solver.
  Coordinate Transformation = String "cylindrical to cartesian"
  Coordinate Transformation Radius = Real 1.0

! Two steady state iterations are enforced to check for
! allocation errors of the mapper. 
  Coordinate Transformation ReUse = Logical True

! The initial phi coordinate is in [0,180]
  Coordinate Transformation Use Degrees = Logical True

  Equation = "Heat Equation"
  Variable = "Temperature"
  Variable Dofs = 1
  Linear System Solver = "Iterative"
  Linear System Iterative Method = "BiCGStabl"
  BiCgStabl Polynomial Degree = 4
  Linear System Max Iterations = 500
  Linear System Convergence Tolerance = 1.0e-10
  Linear System Abort Not Converged = True
  Linear System Preconditioning = "none"
  Linear System Residual Output = 1
  Steady State Convergence Tolerance = 1.0e-05
  Nonlinear System Convergence Tolerance = 1.0e-05
  Nonlinear System Max Iterations = 1
  Nonlinear System Newton After Iterations = 3
  Nonlinear System Newton After Tolerance = 1.0e-02
  Nonlinear System Relaxation Factor = 1.0
End

Solver 2
! Saves the results (in the original coordinate system)
  Exec Solver = never

  Equation = "result output"
  Procedure = "ResultOutputSolve" "ResultOutputSolver"
  Output File Name = case

  Vtu Format = Logical True
  Binary Output = Logical True
  Single Precision = Logical True
End

Material 1
  Name = "Ideal"
  Density = 1
  Heat Conductivity = 1
End

Body Force 1
  Name = "Heating"
  Heat Source = Equals Coordinate 1
End

Boundary Condition 1
  Name = "Sides"
  Target Boundaries = 1
  Temperature = 0.0
End

Boundary Condition 2
  Name = "Bottom"
  Target Boundaries = 2
End

Boundary Condition 3
  Name = "Top"
  Target Boundaries = 3 
End

Solver 1 :: Reference Norm = Real 1.62742196924821544E-002
RUN

!End Of File
