! Test case for keywords depending on keywords.
! Not to be used lightly as this may introduce a performance bottle-neck.
!
! P.R. 29.6.2023

Header
  CHECK KEYWORDS Warn
  Mesh DB "." "angle"
  Include Path ""
  Results Directory ""
End

Simulation
  Max Output Level = 5

  Coordinate System = "Cartesian"
  Coordinate Mapping(3) = 1 2 3

  Simulation Type = "Steady State"
  Steady State Max Iterations = 1
  Output Intervals = 0

  Post File = "case.vtu"
End

Constants
  Gravity(4) = 0 -1 0 9.82
  Stefan Boltzmann = 5.67e-08
End

Body 1
  Name = "Body1"
  Body Force = 1
  Equation = 1
  Material = 1
End

Body 2
  Name = "Body2"
  Body Force = 1
  Equation = 1
  Material = 2
End

Body 3
  Name = "Body3"
  Body Force = 1
  Equation = 1
  Material = 3
End

Equation 1
  Name = "Equations"
  Active Solvers(2) = 1 2
End

Solver 1
  Equation = "Heat Equation"
  Procedure = "HeatSolve" "HeatSolver"

  Variable = "Temperature"

  Linear System Solver = "Iterative"
  Linear System Iterative Method = "BiCGStab"
  Linear System Max Iterations = 500
  Linear System Convergence Tolerance = 1.0e-08
  Linear System Abort Not Converged = True
  Linear System Preconditioning = "ILU0"
  Steady State Convergence Tolerance = 1.0e-05

  Nonlinear System Convergence Tolerance = 1.0e-05
  Nonlinear System Max Iterations = 1
  Nonlinear System Newton After Iterations = 3
  Nonlinear System Newton After Tolerance = 1.0e-02
  Nonlinear System Relaxation Factor = 1.0
End



Solver 2
  Equation = "SaveMaterial"
  Procedure = File "SaveData" "SaveMaterials"
  Parameter 1 = String "Heat Conductivity"
End

Material 1
  Name = "Material1"
  Density = 1

  Heat Conductivity = 1.0
End

Material 2
  Name = "Material1"
  Density = 1

  LinX = Variable "coordinate 1"
    Real
      0 1
      1 2.0
    End
    
  LinY = Variable "coordinate 2"
    Real
      0 2
      1 3
    End

  Heat Conductivity = Variable "linx, liny"
    Real MATC "tx(0)*tx(1)"

! reference
!  Heat Conductivity = Variable "Coordinate"
!    Real MATC "(1+tx(0))*(2+tx(1))"
End

Material 3
  Name = "Material1"
  Density = 1

  LinY = Variable "coordinate 2"
    Real MATC "2+tx"
  LinX = Variable "coordinate 1"
    Real MATC "1+tx"

  Heat Conductivity = Variable "linx, liny"
    Real MATC "tx(0)*tx(1)"

! reference
!  Heat Conductivity = Variable "Coordinate"
!    Real MATC "(1+tx(0))*(2+tx(1))"
End

Body Force 1
  Name = "BodyForce"
  Heat Source = 1
End

Boundary Condition 1
  Name = "Zero"
  Target Boundaries(2) = 1 2
  Temperature = 0
End

Solver 1 :: Reference Norm = 2.05805960E-01

!End Of File
