! This is a historical minimal test involving one triangle that was
! later converted to a test case in case somebody would like to study it.
!
! P.R. 22.5.2018

Header
  CHECK KEYWORDS Warn
  Mesh DB "." "triangle"
End

Simulation
  Simulation Type = Steady state
  Post File = case.vtu
End

Body 1
  Target Bodies(1) = 1
  Equation = 1
  Material = 1
End

Solver 1
  Equation = Heat Equation
  Linear System Solver = Direct
End

Equation 1
  Active Solvers(1) = 1
End

Material 1
  Heat Conductivity = 1
  Density = 1
End

Boundary Condition 1
  Target Boundaries(1) = 2
  Temperature = 0
End

Boundary Condition 2
  Target Boundaries(1) = 3
  Heat Flux = 1
End



Solver 1::Reference Norm = 2.88675135E-01
