! steady-state cavity lid case with Re=100

Header
  CHECK KEYWORDS Warn
  Mesh DB "." "square"
  Include Path ""
  Results Directory ""
End

Simulation
  Max Output Level = 4
  Coordinate System = Cartesian
  Simulation Type = Steady
  Steady State Max Iterations = 1
  Post File = case.ep
  Set Dirichlet BCs by BC Numbering=True
End

Constants
  Gravity(4) = 0 -1 0 9.82
  Stefan Boltzmann = 5.67e-08
  Permittivity of Vacuum = 8.8542e-12
  Boltzmann Constant = 1.3807e-23
  Unit Charge = 1.602e-19
End

Body 1
  Target Bodies(1) = 1
  Name = "Body 1"
  Equation = 1
  Material = 1
End

Solver 1
  Equation = Navier-Stokes

  Stabilization Method=Stabilized

  Steady State Convergence Tolerance = 1.0e-5

  Nonlinear System Convergence Tolerance = 1.0e-8
  Nonlinear System Max Iterations = 20
  Nonlinear System Newton After Iterations = 3
  Nonlinear System Relaxation Factor = 1
  Nonlinear System Newton After Tolerance = 1.0e-3

  Linear System Solver = Iterative
  Linear System Symmetric = True
  Linear System Iterative Method = BicgstabL
  Linear System Max Iterations = 500
  Linear System Convergence Tolerance = 1.0e-10
  Linear System Residual Output = 10
  Linear System Preconditioning = ILU0
End


Equation 1 :: Active Solvers=1

Material 1
  Density = 1
  Viscosity = 0.01
End

Boundary Condition 1
  Target Boundaries(3) = 1 2 4
  Velocity 1 = 0.0
  Velocity 2 = 0.0
End	

Boundary Condition 2
  Target Boundaries(1) = 3
  Name = "Top"
  Velocity 1 = 1.0
  Velocity 2 = 0.0
End

Solver 1 :: Reference Norm = Real  2.147996E-01
$fprintf( stderr, "TEST CASE 1\n")$
RUN
$fprintf( stderr,"END TEST CASE 1: Target NRM= 2.147996E-01\n");
