Header
  CHECK KEYWORDS Warn
  Mesh DB "." "torus2"
End

Simulation
  Coordinate System = Cartesian
  Coordinate Mapping(3) = 1 2 3

  Angular Frequency = 1

  Simulation Type = Steady
  Steady State Max Iterations = 1
End

Constants
  Gravity(4) = 0 -1 0 9.82
  Stefan Boltzmann = 5.67e-08
  Permittivity of Vacuum = 8.8542e-12
  Boltzmann Constant = 1.3807e-23
  Unit Charge = 1.602e-19
End

Body 1
  Target Bodies(1) = 1
  Name = "Body 1"
  Equation = 1
  Material = 1
End

Body 2
  Target Bodies(1) = 2
  Name = "Body 2"
  Equation = 1
  Material = 2
  Body Force = 1
End


Solver 1
  Equation = MGDynamics
  Procedure = "MagnetoDynamics" "WhitneyAVHarmonicSolver"
  Variable =  P[P re:1 P im:1]

  Steady State Convergence Tolerance = 1.0e-5
  Nonlinear System Convergence Tolerance = 1.0e-8
  Nonlinear System Max Iterations = 20
  Nonlinear System Newton After Iterations = 3
  Nonlinear System Newton After Tolerance = 1.0e-3
  Nonlinear System Relaxation Factor = 1

  Linear System Solver = iterative
  Linear System Symmetric = True
  Linear System Iterative Method = CG
  Linear System Max Iterations = 3000
  Linear System Convergence Tolerance = 1.0e-7
  Linear System Preconditioning = Ilu
  Linear System Residual Output = 10
  Linear System Abort Not Converged = False
End

Solver 2
  Equation = MGDynamicsCalc
  Procedure = "MagnetoDynamics" "MagnetoDynamicsCalcFields"
  Potential Variable = String "P"

  Steady State Convergence Tolerance = 1.0e-5
  Nonlinear System Convergence Tolerance = 1.0e-8
  Nonlinear System Max Iterations = 20
  Nonlinear System Newton After Iterations = 3
  Nonlinear System Newton After Tolerance = 1.0e-3
  Nonlinear System Relaxation Factor = 1

  Linear System Solver = Iterative
  Linear System Symmetric = True
  Linear System Iterative Method = CG
  Linear System Max Iterations = 5000
  Linear System Convergence Tolerance = 1.0e-8
  Linear System Preconditioning = ILU0
  Linear System ILUT Tolerance = 1.0e-3
  Linear System Abort Not Converged = False
  Linear System Residual Output = 1
  Linear System Precondition Recompute = 1
End

Equation 1
  Name = "MGDyn"
  Active Solvers(2) = 1 2
End

Material 1
  Name = "Space"
  Permeability = real 1
  Electric Conductivity = 1e-12
End

Material 2
  Name = "Conductor"
  Permeability = real 1
  Electric Conductivity = 1
End

Body Force 1
  Name = "Current"

  Current Density im 1 = Variable coordinate
    Real MATC "-0.32e5*tx(2)"

  Current Density im 3 = Variable coordinate
    Real MATC " 0.32e5*tx(0)"
End

Boundary Condition 1
  Target Boundaries(6) = 1 2 3 4 5 6
  Name = "far"
  P re {e} = real 0
  P im {e} = real 0
End

Solver 2 :: Reference Norm = Real 2.5874020
RUN
