! This is test case for single lowest order nodal elements
! + utility for timing their performance.  
! This test for linear p. 
!
! P.R. 22.8.2022

Check Keywords "Warn"

Header :: Mesh DB "." "unitelems"

Simulation
  Max Output Level = 10
  Coordinate System = Cartesian 3D
  Simulation Type = Steady
  Output Intervals(1) = 1
  Steady State Max Iterations = 1
!  Post File   = "case.vtu"
  Serendipity P Elements = False
End

Body 1
  Equation = 1
  Material = 1
End

Material 1
End

Equation 1 :: Active Solvers(1) = 1

Solver 1
  Equation = "Test"
  Procedure = "SingleElements" "SingleElements"

! Activate to test lowest order p-elements
  Element = "p:1"

! Activate for timing 
! Timing Cycles = Integer 2000000
End

! 1st test mass matrices
Solver 1 :: Reference Norm = 1.0 ! 808
RUN
Solver 1 :: Reference Norm = 0.5 ! 706
RUN
Solver 1 :: Reference Norm = $1.0/3.0 ! 605
RUN
Solver 1 :: Reference Norm = $1.0/6.0 ! 504
RUN
Solver 1 :: Reference Norm = 1.0 ! 404
RUN
Solver 1 :: Reference Norm = 0.5 ! 303
RUN
! Then test the stiffness matrix
Solver 1 :: Reference Norm = 5.3333333 ! 808
RUN
Solver 1 :: Reference Norm = 4.3333333 ! 706
RUN
Solver 1 :: Reference Norm = 3.4074074 ! 605
RUN
Solver 1 :: Reference Norm = 2.0 ! 504
RUN
Solver 1 :: Reference Norm = 5.3333333 ! 404
RUN
Solver 1 :: Reference Norm = 4.0 ! 303
RUN
