Header
  CHECK KEYWORDS Warn
  Mesh DB "." "angle"
  Include Path ""
  Results Directory ""
End

Simulation
  Max Output Level = 5

  Coordinate System = "Cartesian"
  Coordinate Mapping(3) = 1 2 3

  Simulation Type = "Steady State"
  Steady State Max Iterations = 1
  Output Intervals = 1

!  Output File = "TempDist.dat"
  Post File = "TempDist.ep"
End

Constants
  Gravity(4) = 0 -1 0 9.82
  Stefan Boltzmann = 5.67e-08
End

Body 1
  Name = "Body"
  Body Force = 1
  Equation = 1
  Material = 1
End

Equation 1
  Name = "Equations"
  Active Solvers(2) = 1 2
End

Solver 1
  Exec Solver = "Always"
  Equation = "Heat Equation"
  Variable = "Temperature"
  Variable Dofs = 1
  Linear System Solver = "Iterative"
  Linear System Iterative Method = "BiCGStab"
  Linear System Max Iterations = 350
  Linear System Convergence Tolerance = 1.0e-08
  Linear System Abort Not Converged = True
  Linear System Preconditioning = "ILU0"
  Linear System Residual Output = 1
  Steady State Convergence Tolerance = 1.0e-05
  Stabilize = True
  Nonlinear System Convergence Tolerance = 1.0e-05
  Nonlinear System Max Iterations = 1
  Nonlinear System Newton After Iterations = 3
  Nonlinear System Newton After Tolerance = 1.0e-02
  Nonlinear System Relaxation Factor = 1.0
End


Solver 2
  Equation = ComputeFlux
  Procedure = "FluxSolver" "FluxSolver"

  Calculate Flux = Logical True
  Target Variable = String Temperature
  Flux Coefficient = String "Heat Conductivity"

! these are taken care by the defaults
!  Linear System Solver = "Iterative"
!  Linear System Iterative Method = "cg"
!  Linear System Preconditioning = None
!  Linear System Residual Output = 10
!  Linear System Max Iterations = Integer 500
!  Linear System Convergence Tolerance = 1.0e-10
End

Solver 3
  Exec Solver = never

  Equation = SaveLine
  Procedure = "SaveData" "SaveLine"

  Filename = f.dat
  
  Save Isocurves = Logical True
  IsoSurface Variable 1 = String Temperature
  IsoSurface Value 1 = Real 0.02
  IsoSurface Value 2 = Real 0.04
End

Material 1
  Name = "Material"
  Density = 1
  Heat Conductivity = 3
End

Body Force 1
  Name = "BodyForce"
  Heat Source = 1
End

Boundary Condition 1
  Name = "Constraint"
  Target Boundaries(1) = 1 
  Temperature = 0
End

Solver 2 :: Reference Norm = Real 0.198814065076
RUN
!End Of File
