! Test case for a cut-fem type of machinery.
! Here simple 2d triangle mesh is split for using a circular zero levelset.
! This version has too solvers just to see that that works alo.
!
! P.R. 13.4.2026, 5.7.2026

Header
  Mesh DB "." "square-tri"
End

Simulation
  Max Output Level = 30
  Coordinate System = String Cartesian
  Simulation Type = Transient 
  Steady State Max Iterations = 1
  Output Intervals = 1

! reduce timesteps for testing
  Timestep Intervals = 3 !100
  Timestep Sizes = 1.0
  Timestepping Method = implicit euler

  Post File = File "case-a.vtu"
  Ascii Output = True
  vtu: Save Bulk Only = Logical True

  Mesh Levels = 3
  Mesh Keep = 1

! For now, skip some deallocation issues
  Dirty Finish  = Logical True


!------------------------------------------------
! Keywords for SplitFEM
!------------------------------------------------
  Levelset Variable = String "Surface"

! This should be generalized. 
  Levelset Velocity 1 = Real $0.006
  Levelset Velocity 2 = Real $0.002
  
  SplitFem Epsilon = Real 1.0e-3
!  SplitFem Epsilon Absolute = Logical True

! What BC index will be given for on-the-fly BC. 
  SplitFem Interface BC = Integer 4
! What index will be given for negative levelset.
  SplitFEM inside body = integer 1
! for positive levelset.   
  SplitFEM outside body = integer 0

! Should we extend using FEM
  SplitFem extend = logical true
! Should be extrapolate using edges (alternative). 
!  SplitFEM extrapolate = Logical True

! Should we save the actural splitted mesh in 2D? 
!  SplitFEM Mesh Save = Logical True

! Which variables to project to isoline
  Isoline Variable 1 = String "Potential"
  Isoline Variable 2 = String "PotentialB"
  Isoline Variable 3 = String "Surface"

! Which variables to project to 2D viz. mesh.
  Project Variable 1 = String "Potential"
  Project Variable 2 = String "PotentialB"
  Project Variable 3 = String "Surface"
End

Body 1
  Name = String "inside"
  Equation = 1
  Material = 1
  Body Force = 1
  Initial Condition = 1
End


Initial Condition 1
  Name = "InitSurface"
$Rad=0.7
  Surface = Variable "Coordinate"
    Real MATC "tx(0)^2+tx(1)^2-Rad^2"
End

Equation 1
  Name = String "Equation1"
  Active Solvers(2) = 1 2
End


Solver 1
  Equation = "ModelPDE"
  Variable = Potential
  Procedure = "ModelPDE" "AdvDiffSolver"

  Time Derivative Order = 1
  Time Order = 1

  Nonlinear System Max Iterations = 1

  Optimize Bandwidth = False
  Linear System Scaling = False

  Linear System Solver = direct 
  Linear System Direct Method = umfpack

! We define a levelset to be used and request this solver to use SplitFEM. 
  Exported Variable 1 = Surface
  SplitFem = logical True
End

Solver 2
  Equation = "ModelPDEB"
  Variable = PotentialB
  Procedure = "ModelPDE" "AdvDiffSolver"

  Time Derivative Order = 1
  Time Order = 1

  Nonlinear System Max Iterations = 1
  
  Optimize Bandwidth = False
  Linear System Scaling = False

  Linear System Solver = direct 
  Linear System Direct Method = umfpack 

  SplitFem = logical True
End


Solver 3
  Equation = "SaveScalars"
  Exec Solver = After Timestep
  Procedure = "SaveData" "SaveScalars"
  Filename = "f.dat"
  Variable 1 = time
  Variable 2 = potential
  Operator 2 = min
  Operator 3 = max

  Show Norm Index = 3
End


Material 1
  Name = "ideal"
  Diffusion Coefficient = 1.0
End

!Material 2
!  Name = "ideal2"
!  Diffusion Coefficient = 2.0
!End

Body Force 1
  Name = "InsideSource"
  Field Source = Real 1.0
End 

Body Force 2
  Name = "OutsideSource"
  Field Source = Real 0.0
End 

Boundary Condition 1
  Name = String "Bot"
  Target Boundaries(1) = 1  
!  Potential = 1.0
End

Boundary Condition 2
  Name = String "Top"
  Target Boundaries(1) = 3
!  Field Flux = Real 1.0
!  Potential = 1.0
End

Boundary Condition 3
  Name = String "Sides"
  Target Boundaries(2) = 2 4
!  SplitFEM Forbidden Boundary = Logical True
End

Boundary Condition 4
  Name = String "SplitFEM"
!  Field Flux = Real 1.0
  Robin Coefficient = Real 1.0
  External Field = Real 0.0
!  Potential = 0.0
End

! after 100 timesteps x mesh levels 5
!Solver 1 :: Reference Norm = 4.93622297E-01
!Solver 2 :: Reference Norm = 4.93622297E-01
!Solver 3 :: Reference Norm = 5.96345919E-01

! after 3 timesteps x mesh levels 3
Solver 1 :: Reference Norm = 3.74375920E-01
Solver 2 :: Reference Norm = 3.74375920E-01
Solver 3 :: Reference Norm = 4.64944891E-01
