! Test case for hysteresis models
! Author: Eelis Takala, Trafotek Oy
! Original date: April 2018
! eelis.takala@gmail.com
Check Keywords "Warn"
INCLUDE sif/37-circuits.definitions
INCLUDE 37/mesh.names
Header 1
   Mesh DB "." "37"
End
Initial Condition 1
   A re = Real 0
   A im = Real 0
End
Simulation 1
   Max Output Level = 3
   Coordinate System = Cartesian
!   Coordinate System = Axi symmetric
   Simulation Type = Transient
   Timestepping Method = BDF
   BDF Order = 1
   Timestep intervals = 10
   Timestep Sizes = 1
   Steady State Max Iterations = 1
   Angular Frequency = 314.159265359
End
Solver 1  !---- DirectionSolver, DirectionSolver
   Exec Solver = Before all
   Procedure = "DirectionSolver" "DirectionSolver"
   Linear System Solver = Iterative
   Linear System Iterative Method = BiCGStab
   Linear System Max Iterations = 5000
   Linear System Convergence Tolerance = 1.0e-10
   Linear System Abort Not Converged = True
   Linear System Residual Output = 1000
   Equation = Direction
   Variable = Alpha
End
Solver 2  !---- CircuitsAndDynamics, CircuitsAndDynamics
   Exec Solver = Always
   Equation = Circuits
   Variable = X
   No Matrix = Logical True
   Procedure = "CircuitsAndDynamics" "CircuitsAndDynamics"
End
Solver 3  !---- MagnetoDynamics2D, MagnetoDynamics2D
   Exec Solver = Always
   Equation = "Mag"
   Variable = A

   Procedure = "MagnetoDynamics2D" "MagnetoDynamics2D"
   NonLinear System Relaxation Factor=1
   Export Lagrange Multiplier = Logical True
   Linear System Solver = Iterative
   Linear System Iterative Method = BicgstabL
   Linear System preconditioning = circuit
   Linear System ILU Order = Integer 0
   Linear System Convergence Tolerance = 1.e-8
   Linear System Max Iterations = 5000
   Linear System Residual Output = 1000
   Linear System ILUT Tolerance=1e-8
   BicgStabL Polynomial Degree = 4
   Steady State Convergence Tolerance = 1e-08
   ! Nonlinear system measure
   nonlinear system max iterations = 20
   nonlinear system convergence tolerance = 1e-5
   nonlinear system convergence measure = solution

  newton-raphson iteration = logical true
End
Solver 4
  Equation = "calcfields"
  potential variable = "A"
  Procedure = "MagnetoDynamics" "MagnetoDynamicsCalcFields"
  linear system solver = iterative
  linear system iterative method = cg
  linear system abort not converged = false
  linear system convergence tolerance = 1e-6
  linear system max iterations = 200
  linear system residual output = 0

  calculate elemental fields = true
  calculate magnetic field strength = logical true
  calculate magnetic flux density = logical true
End
Solver 5  !---- CircuitsAndDynamics, CircuitsOutput
   Exec Solver = Always
   Equation = Circuits Output
   Procedure = "CircuitsAndDynamics" "CircuitsOutput"
End
Solver 6  !---- ResultOutputSolve, ResultOutputSolver
   Exec Solver = never 
   Equation = "ResultOutput"
   Procedure = "ResultOutputSolve" "ResultOutputSolver"
   Output File Name = 37-results
   Vtu format = Logical True
   Save Geometry Ids = Logical True
End
Solver 7  !---- SaveData, SaveScalars
   Exec Solver = After timestep
   Equation = "sv"
   Procedure = "SaveData" "SaveScalars"
   Filename = 37/dat/37.dat
   show norm index = 2
   reference norm = real 1.23484901E+01
   reference norm tolerance = real 1e-4
End
Equation 1
   Active Solvers(3) = 2 3 4
End
Equation 2
   Active Solvers(4) = 1 2 3 4
End
Material 1  !---- test zirka steel
   Name = electrical_steel
   Electric Conductivity = 0
   Relative Permeability = 2883.24172268
   Relative Permittivity = 1

   zirka material = logical true

   ascending BH curve(500,2) = Real 
   Include sif/BH_asc

   single valued BH curve(1001,2) = Real
   Include sif/BH_single

   zirka directions = integer 4
   zirka variable = string zirka
   ! Uncomment next for slower init
   ! zirka init sequence(18, 1) = real 1.8 -1.0 0.5555555555555556 -0.30864197530864196 0.17146776406035666 -0.09525986892242036 0.05292214940134464 -0.029401194111858136 0.016333996728810075 -0.009074442627116708 0.005041357015064837 -0.002800753897258243 0.0015559743873656904 -0.0008644302152031613 0.00048023900844620075 -0.0002667994491367782 0.00014822191618709898 -8.234550899283277e-5 4.57475
   zirka init sequence(4,1) = real 2 -0.5 0.1 -0.05
   zirka model coeffs(4,1) = real 7.73 2.76 -28.63 28.36 ! From the paper [1]
   zirka model b multiplier = real 0.22 ! From the paper [1]
   zirka model c multiplier = real 0.125 ! From the paper [1]
   zirka spline cache subsample = integer 10
End
Material 2  !---- air: generic
   Name = air
   Electric Conductivity = 0
   Relative Permeability = 1.0
   Relative Permittivity = 1
End
Material 3  !---- copper: generic
   Name = copper
   Relative Permeability = 1.0
   Relative Permittivity = 1
   Electric Conductivity = 59.6e7
End
Body 1  !---- Core
   Name = Core
   Target Bodies = 1
   Equation = 1
   Material = 1
End
Body 2  !---- air
   Name = air
   Target Bodies = 3
   Equation = 1
   Material = 2
End
Body 3  !---- L1
   Name = L1
   Target Bodies = 2
   Equation = 2
   Material = 3
End
Component 1  !---- L1
   Name = String L1
   Master Bodies = Integer 3
   Coil Type = String stranded
   Number of Turns = Real 100
   Insulator Portion = Real 0
   Winding Temperature = Real 20
End
Body Force 1  !---- Circuit
   Name = "Circuit"
   S1 = Variable time
     Real
       0.0 0.0
       1.999 0.0
       2.0   100.0
       3.0   100.0
       3.001 0.0
       4.0   0.0        
     End 

! Note: this causes IO problems on taito! Investigate!
!     Real MATC "if(tx>=2 & tx<=3) 100; 0"

!   S1: Frequency = Real 1
!   S1: Phase = Real 0.0
!   S1: Harmonic Content (1,2) = Real
!   INCLUDE sif/S1Harmonic.dat
!   S1 = Variable time
!     Real Procedure "HarmonicSignals" "source"
End
Boundary Condition 1  !---- center
   Target Boundaries = $ center0
   A = Real 0
End
Boundary Condition 2  !---- top
   Target Boundaries(3) = 2 3 4
   A = Real 0
End
