!echo on

Header
  CHECK KEYWORDS Warn
  Mesh DB "." "Mesh"
  Include Path ""
  Results Directory ""
End

Simulation
  Max Output Level = 5
  Coordinate System = "Cartesian 2D"
  Coordinate Mapping(3) = 1 2 3

  Simulation Type = "Steady State"
  Steady State Max Iterations = 1
  Output Intervals = 1

! Output File = "TempDist.dat"
! Post File = "TempDist.ep"
End

Constants
  Gravity(4) = 0 -1 0 9.82
  Stefan Boltzmann = 5.67e-08
End

Body 1
  Name = "Body1"
  Body Force = 1
  Equation = 1
  Material = 1
End

Equation 1
  Name = "Equation1"

  Heat Equation = True
End

Solver 1
  Exec Solver = "Always"
  Equation = "Heat Equation"
  Variable = "Temperature"
  Variable Dofs = 1
  Linear System Solver = "Multigrid"
  MG Equal Split = TRUE
  MG Pre Smoothing iterations = 5
  MG Post Smoothing Iterations = 10
  MG Levels = 4
  Linear System Iterative Method = "BiCGStab"
  Linear System Max Iterations = 350
  Linear System Convergence Tolerance = 1.0e-08
  Linear System Abort Not Converged = True
  Linear System Preconditioning = "ILU0"
  Linear System Residual Output = 1

  Steady State Convergence Tolerance = 1.0e-05
  Stabilize = True
  Nonlinear System Convergence Tolerance = 1.0e-05
  Nonlinear System Max Iterations = 1
  Nonlinear System Newton After Iterations = 3
  Nonlinear System Newton After Tolerance = 1.0e-02
  Nonlinear System Relaxation Factor = 1.0
End

Material 1
  Name = "Material1"

  Density = 1
  Heat Conductivity = 1
End

Body Force 1
  Name = "BodyForce1"

  Heat Source = 1
End

Boundary Condition 1
  Name = "Constraint1"
  Target Boundaries(6) = 1 2 3 4 5 6 

  Temperature = 0
End

Solver 1 :: Reference Norm = Real 0.808338420411E-01
Solver 1 :: Reference Norm Tolerance = Real 1.0e-4
RUN


!End Of File
