Check Keywords "Warn"
INCLUDE toroidalcoil/mesh.names

Header
  Mesh DB "." "toroidalcoil"
End

$ f = 1000
$ omega = 2*pi*f
$ intervals = 20
$ tsize = 1/(f*intervals)

Simulation
  Max Output Level = 5

  Coordinate System = "Cartesian"

  Simulation Type = Steady
  Steady State Max Iterations = 1
  Output Intervals(1) = 0

  Angular Frequency = Real $ omega

   Post File = toroidalcoil.ep

End

Initial Condition 1
 P re = Real 0
 P im = Real 0
 P re {e} = Real 0
 P im {e} = Real 0
End

Solver 1
   Equation = "MGDynamics"
   Variable =  P[P re:1 P im:1]

   Procedure = "MagnetoDynamics" "WhitneyAVHarmonicSolver"
   Fix Input Current Density = Logical False
   Angular Frequency = $ omega

   Linear System Symmetric = Logical true
   Linear System Solver = "Iterative"
   Linear System Preconditioning = None
   Linear System Convergence Tolerance = 1e-8
   Linear System Residual Output = 100
   Linear System Max Iterations = 5000
   Linear System Iterative Method = BiCGStabL
   BiCGstabl polynomial degree = 2
   Linear System Direct Method = Umfpack

   Steady State Convergence Tolerance = 1e-6
   Linear System Abort Not Converged = False

End

Solver 2
   Equation = "MGDynamicsCalc"
   Procedure = "MagnetoDynamics" "MagnetoDynamicsCalcFields"
   Linear System Symmetric = True
   Potential Variable = String "P"

   Angular Frequency = $ omega
   Show Angular Frequency = Logical True

!   Calculate Magnetic Field Strength = Logical True
   Calculate Current Density = Logical True
   Steady State Convergence Tolerance = 0
   Linear System Solver = "Iterative"
   Linear System Preconditioning = None
   Linear System Residual Output = 0
   Linear System Max Iterations = 5000
   Linear System Iterative Method = CG
   Steady State Convergence Tolerance = 1e-6
   Linear System Convergence Tolerance = 1.0e-8
End

Solver 3
!  Exec Solver = after timestep
  Exec Solver = never
  Equation = "ResultOutput"
  Procedure = "ResultOutputSolve" "ResultOutputSolver"
  Output File Name = lowfreq
  Vtu format = Logical True
  Scalar Field 1 = String "P"
  Scalar Field 1 = String "Jfix"
  Vector Field 1 = String "Current Density"
  Vector Field 2 = String "Magnetic Flux Density E"
  Vector Field 3 = String "Magnetic Field Strength E"
End

Solver 4
!  Exec Solver = After Timestep
  Exec Solver = never
  Equation = SaveScalars
  Procedure = "SaveData" "SaveScalars"
  Filename = res/lowfreq.dat
  File Append = Logical False
!  Parallel Reduce = Logical True
End

Equation 1
  Name = "Coupled Equations"
  Active Solvers(2) = 1 2
End

Material 1
  Name = "Air"
  Electric Conductivity = 0
  Relative Permeability = 1
End

Material 2
  Name = "Iron"
  Electric Conductivity = 0
  Relative Permeability = 500

  Laminate Stack Model = String "Wide-Frequency-Band Model"
  Laminate Thickness = Real 3.5e-4
  Laminate Stack Conductivity = Real 1e7
End

Material 3
  Name = "Copper"
  Electric Conductivity = 100
  Relative Permeability = 1.0
End

Body 1
   Name = "Air"
   Target Bodies(1) = $ air
   Equation = 1
   Material = 1
End

Body 2
   Name = "Ring"
   Target Bodies(1) = $ iron
   Equation = 1
   Material = 2
End

Body 3
   Name = "Cable"
   Target Bodies(1) = $ coil
   Equation = 1
   Material = 3
End

Boundary Condition 1
  Target Boundaries(1) = $ FluxParallel
  P re {e} = real 0
  P im {e} = real 0
End


Boundary Condition 2

  Target Boundaries(1) = $ currentIn
  P re {e} = real 0
  P im {e} = real 0
 
  Electric Current Density = Real -3.5e5

End

Boundary Condition 3
  Target Boundaries(1) = $ Potential
  P re {e} = real 0
  P im {e} = real 0
  P re = real 0
  P im = real 0
End

Boundary Condition 4
  Target Boundaries(1) = $ Flux

  Magnetic Flux Average = Logical True
End

Solver 2 :: Reference Norm = Real 0.52693342E-01
Solver 2 :: Reference Norm Tolerance = Real 1e-3
RUN

