! The sizes of vectors may be given implicitly using suntax "(*)"
! for the size. Then the values must be on the same line.
!
! P.R. 1.5.2021

Header
  CHECK KEYWORDS Warn
  Mesh DB "." "square"
  Include Path ""
  Results Directory ""
End

Simulation
  Max Output Level = 5

  Coordinate System = "Cartesian"
  Coordinate Mapping(*) = 1 2 3

  Simulation Type = "Steady State"
  Steady State Max Iterations = 1
  Output Intervals = 0

!  Post File = "case.vtu"
End

Constants
  Gravity(*) = 0 -1 0 9.82
  Stefan Boltzmann = 5.67e-08
End

Body 1
  Name = "Body"
  Body Force = 1
  Equation = 1
  Material = 1
End

Equation 1
  Name = "Equations"
  Active Solvers(*) = 1 2
End

Solver 1
  Exec Solver = "Always"
  Equation = "Heat Equation"
  Variable = "Temperature"

  Linear System Solver = "Iterative"
  Linear System Iterative Method = "BiCGStab"
  Linear System Max Iterations = 350
  Linear System Convergence Tolerance = 1.0e-08
  Linear System Abort Not Converged = True
  Linear System Preconditioning = "ILU0"
  Linear System Residual Output = 1
  Steady State Convergence Tolerance = 1.0e-05

  Nonlinear System Convergence Tolerance = 1.0e-05
  Nonlinear System Max Iterations = 1
End

Material 1
  Name = "Material"
  Density = 1
  Heat Conductivity(*) = 1 2
End

Body Force 1
  Name = "BodyForce"
  Heat Source = 1
End

Boundary Condition 1
  Name = "Zero"
  Target Boundaries(*) = 1 2 3
  Temperature = 0
End

Solver 1 :: Reference Norm = 3.50844423E-02

!End Of File
