! Ideal 1D flow obtained by periodic BCs for the pressure
! This enables testing of nonnewtonian velocity profiles
! For the first nonlinear system iteration newtonian model is enforced.

$ p0 = 0.0
$ v0 = 1.0

Header
  CHECK KEYWORDS Warn
  Mesh DB "." "square"
  Include Path ""
  Results Directory ""
End

Simulation
  Max Output Level = 5
  Coordinate System = Cartesian
  Simulation Type = Steady State
  Steady State Max Iterations = 1
  Output Intervals = 0
  Post File = case.vtu
  Set Dirichlet BCs by BC Numbering = True
End

Constants
  Gravity(4) = 0 -1 0 9.82
  Stefan Boltzmann = 5.67e-08
  Permittivity of Vacuum = 8.8542e-12
  Boltzmann Constant = 1.3807e-23
  Unit Charge = 1.602e-19
End

Body 1
  Target Bodies(1) = 1
  Name = "Body 1"
  Equation = 1
  Material = 1
End


Solver 1
  Equation = Navier-Stokes

  Stabilization Method=Stabilized

  Steady State Convergence Tolerance = 1.0e-5

  Nonlinear System Convergence Tolerance = 1.0e-6
  Nonlinear System Max Iterations = 50

! activates also the newtonian linearization of viscosity
  Nonlinear System Newton After Iterations = 5
  Nonlinear System Relaxation Factor = 1
  Nonlinear System Newton After Tolerance = 1.0e-3

  gradp discretization = Logical True

  Linear System Solver = Iterative
  Linear System Symmetric = True
  Linear System Iterative Method = BicgstabL
  BiCGStabl polynomial degree = 4
  Linear System Max Iterations = 500
  Linear System Convergence Tolerance = 1.0e-10
  Linear System Residual Output = 10
  Linear System Preconditioning = ILU0

! If this is more than zero the newtonian fluid prevails
  Newtonian Viscosity Condition = Variable nonlin iter
    Real 
      1.0 1.0
      2.0 -1.0
    End 
End


Equation 1 :: Active Solvers=1

Material 1
  Density = 1.0
  Viscosity = 1.0

! shear thinning power law fluid
  Viscosity Model = String "power law"
  Viscosity Exponent = 0.3
  Critical Shear Rate = Real 1.0e-8
  Nominal Shear Rate = Real 1.0


End


Boundary Condition 1
  Target Boundaries(1) = 2
  Name = "Right"

  Periodic BC = 2
  Periodic BC Pressure = Logical True
  Periodic BC Offset Pressure = Real 10.0
  Periodic BC Velocity 2 = Logical True
End

Boundary Condition 2
  Target Boundaries(1) = 4
  Name = "Left"
  Velocity 2 = 0
End

Boundary Condition 3
  Target Boundaries(2) = 1 3
  Name = "Bottom"
  Velocity 1 = 0.0
  Velocity 2 = 0.0
End


Boundary Condition 4
  Target Coordinates(1,2) = 0.5 0.5
  Name = "FixPressure"
  Pressure = $ p0
End 




Solver 1 :: Reference Norm = 1.33575373E+01

