Check Keywords "Warn"

Header
Mesh DB "." "shoebox_tets"
End

Simulation
  Max Output Level = 10

  Coordinate System = "Cartesian"
  Simulation Type = Steady
  Steady State Max Iterations = 1

  Post File = ref.vtu
  vtu: Discontinuous Bodies = Logical True
  vtu: Save Bulk Only = Logical True

  Output Intervals(1) = 1

  Mesh Levels = 1
End

Constants
!Permeability of Vacuum = Real 1
!Permittivity of Vacuum = Real 1
End

Body 1
  Equation = 1
  Material = 1
  Initial Condition = 1
End

$ mu0 = 4e-7*pi
$ eps0 = 8.854187817e-12
$ c = 1/sqrt(mu0*eps0)
$ n = 1
$ a = 0.1   ! The distance of parallel planes
$ w = 2*pi*(2.5e9)
$ k0 = w/c
$ kc = n*pi/a
$ beta0 = sqrt(k0^2-kc^2)

! The above parameters give the following numerical values: 
!
! $ k0=52.3961255469564
! $ beta0=41.9332032192090 
! $ kc=31.4159265358979 


Material 1
  Relative Permittivity = Real 1
End

Equation 1
  Active Solvers(2) = 1 2
  Angular Frequency = Real $w
End

Solver 1
  Equation = "VectorHelmholtz"
!  Variable = E[E re:1 E im:1]
  Use Piola Transform = Logical True
  Quadratic Approximation = True
  Optimize Bandwidth = True
  Procedure = "VectorHelmholtz" "VectorHelmholtzSolver"

  Linear System Symmetric = False
  Linear System Scaling = False
  Linear System Solver = "Direct"
  Linear System Direct Method = "MUMPS"

  Linear System Timing = Logical True
  Calculate Energy Inner Product = Logical True
End

Solver 2
  Equation = "calcfields"
  Procedure = "VectorHelmholtz" "VectorHelmholtzCalcFields"

  Calculate Elemental Fields = True
  Calculate Nodal Fields = False
 
  Calculate Magnetic Field Strength = True
  Calculate Magnetic Flux Density = True
  Calculate Electric field = True
  Calculate Energy Functional = True
End

Solver 3
  Equation = "SaveScalars"
  Procedure = "SaveData" "SaveScalars"
  FileName = "ref.dat"

  Show Norm Index = 1
End

Boundary Condition 1
  Target Boundaries(1) = 1

  Electric Robin Coefficient im = Real $ beta0
  Magnetic Boundary Load 2 = Variable Coordinate 1
    Real MATC "-2*beta0*k0/kc*sin(kc*tx)"

! If the target boundary 6 were open (Absorbing BC = True), the following
! command could be used to set a real-valued electric field E = sin(kc*x)
! as a (TE) source on the feed surface:
!  
!  Magnetic Boundary Load Im 2 = Variable Coordinate 1
!    Real MATC "2*beta0*sin(kc*tx)"  
End

Boundary Condition 2
  Target Boundaries(5) = 2 3 4 5 6
  !E re {e} = Real 0
  !E im {e} = Real 0

  Electric Robin Coefficient = Real $ -474315.9900340191 
  Electric Robin Coefficient im = Real $ 474315.9900340191  
End

!Boundary Condition 3
!  Target Boundaries(1) = 6
!  Absorbing BC = True
!End


Solver 1 :: Reference Norm = 3.28679263E-03
Solver 1 :: Reference Norm Tolerance = 1e-3
Solver 3 :: Reference Norm = 4.03148005E+05
Solver 3 :: Reference Norm Tolerance = 1e-3
