
Header
  Mesh DB "." "box"
End
Simulation 1
  Max Output Level = 10
  Simulation type = transient
  timestep intervals(1) = 7
  ! timestep sizes(1) = 1
  timestep size = 1
End
initial condition 1
  ! a = variable coordinate 1, coordinate 2
  !   real matc "-10*tx(0)"
end 
body 1 ! air
  target bodies(2) = 1 3
  material = 1
  equation(1) = 1
  ! initial condition(1) = 1
end
body 2 ! iron
  target bodies(1) = 2
  material = 2
  equation(1) = 1
  zirka material = logical true
end
boundary condition 1 ! exterior
  target boundaries(2) = 1 2
  ! magnetic flux density 1 = real 
    ! real procedure  "udfs" "a"
  a = variable coordinate 1, time
    real procedure  "udfs" "a"
  ! a = real 0
end 
material 1 ! air material
  relative permeability = 1
  relative permittivity = 1
  ! magnetization 2 = variable coordinate
  !   real procedure "udfs" "m"
end
material 2 ! steel material
  relative permeability = 1
  relative permittivity = 1
  ! magnetization 2 = variable coordinate
  !   real procedure "udfs" "m"

  zirka material = logical true
  zirka variable = string zirka

  ascending BH curve(500,2) = Real 
    Include BH_asc

  single valued BH curve(1001,2) = Real
    Include BH_single
  
  n_dir = integer 1
  zirka variable = string zirka
  ! init to zero = logical false ! this is for debugging
  ! zirka init sequence(1,1) = real
  ! 1.8
  zirka init sequence(18, 1) = real 1.8 -1.0 0.5555555555555556 -0.30864197530864196 0.17146776406035666 -0.09525986892242036 0.05292214940134464 -0.029401194111858136 0.016333996728810075 -0.009074442627116708 0.005041357015064837 -0.002800753897258243 0.0015559743873656904 -0.0008644302152031613 0.00048023900844620075 -0.0002667994491367782 0.00014822191618709898 -8.234550899283277e-5 4.57475049
  zirka model coeffs(4,1) = real 7.73 2.76 -28.63 28.36 ! From the paper [1]
  zirka model b multiplier = real 0.22 ! From the paper [1]
  zirka model c multiplier = real 0.125 ! From the paper [1]
  zirka spline cache subsample = integer 10
end
Solver 1
  Equation = "mgdyn2d"
  Procedure = "MagnetoDynamics2D" "MagnetoDynamics2D"
  ! Procedure = "ZirkaHysteresis" "MagnetoDynamics2D"
  linear system solver = iterative
  linear system iterative method = cg
  linear system direct method = mumps
  ! linear system abort not converged = false
  linear system convergence tolerance = 1e-9
  linear system max iterations = 3000
  linear system residual output = 500
  linear system preconditioning = ilu0
  linear system abort not converged = false
  nonlinear system max iterations = 100
  nonlinear system min iterations = 10
  nonlinear system convergence tolerance = 1e-6
  nonlinear system convergence measure = solution
  variable = a
  exported variable 1 = -ip zirka ! TODO: this exported variable should be autogenerated
  exported variable 1 mask = string "material: zirka material" ! TODO: this mask should be autogenerated
  ! initialize exported variables = logical true
  nonlinear system relaxation factor = real 1.0

  a_mult = variable time
    real 
    1.0 0.0
    2.0 0.6
    3.0 -0.6
    4.0 -0.333333
    5.0 0.33333
    6.0 -0.25
    7.0 0.0
    end

End
Solver 2
  Equation = "calcfields"
  Procedure = "MagnetoDynamics" "MagnetoDynamicsCalcFields"
  ! Procedure = "ZirkaHysteresis" "MagnetoDynamicsCalcFields"
  potential variable = "A"
  linear system solver = iterative
  linear system iterative method = cg
  linear system abort not converged = false
  linear system convergence tolerance = 1e-6
  linear system max iterations = 200
  linear system residual output = 0

  calculate elemental fields = true
  calculate magnetic field strength = logical true
  calculate magnetic flux density = logical true
End
Solver 3
  exec solver = "never"
  Equation = "resultoutput"
  Procedure = "ResultOutputSolve" "ResultOutputSolver"
  save geometry ids = logical true
  output file name = case_ends
  output directory = case_ends
End
solver 4
 equation = "scalars"
 procedure = "SaveData" "SaveScalars"
 variable 1 = a
 operator 1 = dofs
 variable 2 = zirka
 operator 2 = dofs
 variable 3 = magnetic flux density e 2
 mask name 3 = string zirka material
 operator 3 = body int
 variable 4 = magnetic field strength e 2
 mask name 4 = string zirka material
 operator 4 = body int
 filename = "scalars_a.dat"
 output directory = "./"
 show norm index = integer 4
end
solver 5
  exec solver = after all
  Equation = "zirkatest"
  Procedure = "ZirkaTest" "ZirkaTest"
  variable = -global testvar
  test number = integer 3
  zirka init sequence(18, 1) = real 1.8 -1.0 0.5555555555555556 -0.30864197530864196 0.17146776406035666 -0.09525986892242036 0.05292214940134464 -0.029401194111858136 0.016333996728810075 -0.009074442627116708 0.005041357015064837 -0.002800753897258243 0.0015559743873656904 -0.0008644302152031613 0.00048023900844620075 -0.0002667994491367782 0.00014822191618709898 -8.234550899283277e-5 4.57475049
  reference norm = real 0.0
  reference norm tolerance = 1e-4
End
equation 1
  active solvers(4) = 1 2 3 5
end
