Check Keywords "Warn"

Header
  Mesh DB "." "square"
End

Simulation
  Max Output Level = 5
  Coordinate System = "Cartesian 2D"
  Simulation Type = Steady
  Output Intervals(1) = 1
  Steady State Max Iterations = 1
End

Body 1
  Equation = 1
  Body Force = 1
  Material = 1
End

Body Force 1
  f 1 = Real 0
  f 2 = Real 0
End

Material 1
  A 1 = Real -100
  A 2 = Real 0
End

Equation 1
  Active Solvers(1) = 1
  Element = "n:0 e:1"
End

Solver 1
  Equation = "Vector Helmholtz"
  Variable = "Normal Velocity"
  Variable DOFs = 2
  Procedure = "Helmholtz" "HelmholtzHDIVSolver"
  Linear System Solver = "Direct"
  Steady State Convergence Tolerance = 1e-09
End

Boundary Condition 1
  Target Boundaries(1) = 1
  Normal Velocity 1 = Real 1
  Normal Velocity 2 = Real 0
End

Boundary Condition 2
  Target Boundaries(2) = 3 4
  Normal Velocity 1 = Real 0
  Normal Velocity 2 = Real 0
End

Boundary Condition 3
  Target Boundaries(1) = 2
  g 1 = Real 0
  g 2 = Real 0
  B 1 = Real 0
  B 2 = Real 10
End

Solver 1 :: Reference Norm = Real 0.179608284792E-01
RUN

