! Just creates a variable on IP points and computes some values to it
! using the "update exported variables" and body force defintions. 
! The SaveScalars is used to ensure that the max value is correct:
!
! max(testvar a)=2*(0.95+0.05/sqrt(3))
!
! P.R. 19.1.2018

Header
  CHECK KEYWORDS Warn
  Mesh DB "." "square"
  Include Path ""
  Results Directory ""
End

Simulation
  Max Output Level = 32

  Coordinate System = "Cartesian"
  Coordinate Mapping(3) = 1 2 3

  Simulation Type = "Steady State"
  Steady State Max Iterations = 1
  Output Intervals = 1

  Post File = "case.vtu"
End

Constants
  Gravity(4) = 0 -1 0 9.82
  Stefan Boltzmann = 5.67e-08
End

Body 1
  Name = "Body"
  Body Force = 1
  Equation = 1
  Material = 1
  Initial Condition = 1
End

Equation 1
  Name = "Equations"
  Active Solvers(2) = 1 2
End

Initial Condition 1
End 


Solver 1
  Equation = "Heat Equation"
  Variable = "Temperature"
  Linear System Solver = "Iterative"
  Linear System Iterative Method = "BiCGStab"
  Linear System Max Iterations = 1000
  Linear System Convergence Tolerance = 1.0e-08
  Linear System Abort Not Converged = True
  Linear System Preconditioning = "ILU0"
  Linear System Residual Output = 1
  Steady State Convergence Tolerance = 1.0e-05
  Stabilize = True
  Nonlinear System Convergence Tolerance = 1.0e-05
  Nonlinear System Max Iterations = 1
  Nonlinear System Newton After Iterations = 3
  Nonlinear System Newton After Tolerance = 1.0e-02
  Nonlinear System Relaxation Factor = 1.0

! These are used to create a variable 
  Exported Variable 1 = -ip testvar a
  Exported Variable 2 = -ip testvar b

  Update Exported Variables = Logical True

! This could be used just to create the table but not do anything with it
!  Create Integration Points Table = Logical True 
End


Solver 2
  Exec Solver = "Always"
  Procedure = "SaveData" "SaveScalars"
  Equation = "ShowScalars"

  Variable 1 = "Temperature"
  Operator 1 = max
  Variable 2 = testvar a
  Operator 2 = max
  Variable 3 = testvar b
  Operator 3 = max

  Show Norm Index = 2
End


Material 1
  Name = "Material"
  Density = 1
  Heat Conductivity = 1.0
End
 
Body Force 1
  Name = "BodyForce"
  Heat Source = 1
  TestVar A = Variable "Coordinate"
    Real MATC "tx(0)+tx(1)"
  TestVar B = Variable "Temperature"
    Real MATC "tx"
End

Boundary Condition 1
  Name = "Bot"
  Target Boundaries(1) = 1 
  Temperature = 0
End

Boundary Condition 2
  Name = "Right"
  Target Boundaries(1) = 2
  Temperature = 0
End

Boundary Condition 3
  Name = "Top"
  Target Boundaries(1) = 3
  Temperature = 0
End

Boundary Condition 4
  Name = "Left"
  Target Boundaries(1) = 4
  Temperature = 0
End


Solver 1 :: Reference Norm = 3.78170795E-02
Solver 2 :: Reference Norm = 1.95773502692
!End Of File
