Header
  Mesh DB "." "stepquad"
  Include Path ""
  Results Directory ""
End

Simulation
  Max Output Level = 5
  Coordinate System =  Cartesian 2D
  Coordinate Mapping(3) = 1 2 3

  Simulation Type = Steady
  Steady State Max Iterations = 1

  Output Intervals = 0
End

Constants
End

Body 1
  Name = "Body1"
  Equation = 1
  Material = 1
End

Equation 1
  Name = "Equation1"
  Active Solvers(1) = 1
End

Solver 1
  Equation = "NS-Vec"
  Procedure = "IncompressibleNSVec" "IncompressibleNSSolver"

! The point of the case. Equal order velocity/pressure, the pressure mode held
! by the Brezzi-Pitkaranta term rather than by a bubble. Note that no "Element"
! is stated: the solver's _Init0 reads this keyword and hands the equal order
! "n:1" back instead of its usual MINI definition, so stating an element here
! would defeat the test. Stating one WITH a bubble is refused outright.
  Pressure Stabilization = Logical True

! Stage one is the Stokes problem: the stabilised residual carries the pressure
! gradient and the load, not the convective or transient terms, and the solver
! refuses anything else rather than assembling an inconsistent scheme quietly.
  Stokes Flow = Logical True

  Linear System Solver = Iterative
  Linear System Iterative Method = BiCGStabL
  Linear System Max Iterations = 500
  Linear System Convergence Tolerance = 1.0e-10
  Linear System Preconditioning = ILU1
  Linear System Residual Output = 0

  Steady State Convergence Tolerance = 1.0e-5
  Nonlinear System Max Iterations = 1
  Nonlinear System Convergence Tolerance = 1.0e-3
End

Material 1
  Name = "Material1"
  Density = 1
  Viscosity = 1e3
End

Boundary Condition 1
  Name = "inflow"
  Target Boundaries = 1
  Velocity 1 = Variable Coordinate 2
     Real MATC "(2-tx)*(tx-1)"
  Velocity 2 = 0
End

Boundary Condition 2
  Name = "outflow"
  Target Boundaries = 2
  Velocity 2 = 0
End

Boundary Condition 3
  Name = "wall"
  Target Boundaries = 3
  Velocity 1 = 0
  Velocity 2 = 0
End

! The value the stabilised pair has to reproduce is the MINI one, and on this
! mesh the default MINI element ("p:1 -quad b:3", which is what _Init0 gives when
! this case does NOT ask for stabilisation) returns 7.55491505E-02. The norm
! below is 0.012 % under it -- that gap, not the digits themselves, is what the
! test is about, so if the norm has to be reset, re-measure the MINI value too
! and check the two are still this close.
!
! The velocity alone is compared: _Init sets "Nonlinear System Norm DOFs = dim",
! which is worth knowing here, since an unstabilised equal-order pair fails in
! the PRESSURE first and can look healthy in a velocity norm for a while. What
! rules that out here is not the norm but the run finishing at all: without the
! stabilisation this system is singular and BiCGStab(l) diverges outright.
Solver 1 :: Reference Norm = 7.55401834E-02
