! This is test case for harmonic plate solver.
!
! It is assumed that there is no damping and the wake is real valued
! hence also the result is known to be real valued. 
!
! P.R. 27.3.2018

$fmin=100.0
$fmax=500.0
$fn=11  ! this for testing, use more points for a nice curve

$df=(fmax-fmin)/(fn-1)


Header
  Mesh DB "." "shoebox"
End

Constants
End

Simulation
  Max Output Level = 7
  Coordinate System = Cartesian
  Simulation Type = scanning
  Output Intervals = 1
  Steady State Max Iterations = 1

  
  Timestep Intervals = $fn

!  Post File = "case.vtu"

  Frequency = Variable "time"
    MATC "fmin+(tx-1)*df"
End

Body 1
  Equation = 1
  Material = 1
  Initial Condition = 1
End

Body 2
  Equation = 2
  Material = 2
  Body Force = 1
End

Body Force 1
  Pressure = Real -1.0e5
End


Initial Condition 1
  Name = "guess p"
  P = Real 1.0e-12
End 

Material 1
  Name = "nothing"
End

Material 2
  Density = 2710.0
  Youngs Modulus = 70e9
  Poisson Ratio = 0.3
  Thickness = 0.001
End

Equation 1
  Name = "nothing"
End


Equation 2
  Name = "plate"
  Active Solvers(1) = 1 
End

Solver 1
  Equation = Plate Solver
  Procedure = "Smitc" "SmitcSolver"

  Linear System Solver = Iterative
   
  Linear System Iterative Method = idrs !BiCGStabl
  Linear System Max Iterations = 1000
  Linear System Residual Output = 50
  BiCGStabl Polynomial Degree = 5
  Idrs Parameter = 4
  Linear System Preconditioning = none
  Linear System Convergence Tolerance = 1.0e-8

  Nonlinear System Max Iterations = 1

! "Harmonic analysis" cannot be combined with other linear strategies such
! as block preconditioning. Therefore we test here for "Harmonic Mode".
!  Harmonic Analysis = True

! "Harmonic mode" create a fully functional linear system that can then be
! treated with other linear strategies. 
  Harmonic Mode = Logical True

! If system is fully real we can use that to save memory and time. 
  Harmonic Mode Real = Logical True

! If the system is real but we have complex loads or complex coupling
! we may still treat is as a block diagonal. 
!  Harmonic Mode Block Diagonal = Logical True
End



Solver 2
  Equation = "SaveScalars"
  Procedure = File "SaveData" "SaveScalars"

  Variable 1 = Deflection 1
  Operator 1 = min 
  Operator 2 = max 
  Operator 3 = int square mean

  Show Norm Index = 3

  Filename = f.dat
End


Boundary Condition 1
  Target Boundaries(4) = 1 2 3 4
  Name = "Sides"

  Deflection 1 = Real 0.0
  Deflection 2 = Real 0.0
  Deflection 3 = Real 0.0
End 

Boundary Condition 2
  Target Boundaries(1) = 5
  Name = "Bottom"
End 

Boundary Condition 3
  Target Boundaries(1) = 6
  Name = "Fsi"

  Save Scalars = True
  Body Id = 2
End

Solver 1 :: reference norm = 2.75910969E-01
Solver 2 :: reference norm = 2.23846921E-04
