! Colliding particles in a box

Check Keywords Warn


Header
  Mesh DB "." "angle"
End

Simulation
  Max Output Level = 7
  Coordinate System = Cartesian
  Simulation Type = Steady State
  Timestep Intervals = 1
  Timestep Sizes = 1
  Steady State Min Iterations = 1
  Steady State Max Iterations = 1
  Output Intervals = 1
!  Post File = case.vtu
End

Constants
  Permittivity Of Vacuum = 1.0
  Gravity(4) = 0 -1 0 1
End

Body 1
  Name = Fluid
  Equation = 1
  Material = 1
End



Equation 1
  Active Solvers(1) = 1
!  Ns Convect = False
End


Solver 1
!  Exec Solver = before all

  Equation = Flow
  Procedure = "FlowSolve" "FlowSolver"
  Variable = Flow Solution[Velocity:2 Pressure:1]

  Linear System Solver = iterative
  Linear System Direct Method = Umfpack
  Linear System Iterative Method = BiCGStabl
  Bicgstabl polynomial degree = 4
  Linear System Max Iterations = 500

  Stabilization Method = String Stabilized

  Linear System Convergence Tolerance = 1.0e-8
  Linear System Preconditioning = ILU1
  Linear System Residual Output = 20
  Steady State Convergence Tolerance = 1.0e-5

  Nonlinear System Convergence Tolerance = 1.0e-5
  Nonlinear System Max Iterations = 1
  Nonlinear System Newton After Iterations = 3
  Nonlinear System Newton After Tolerance = 1.0e-2
  Nonlinear System Relaxation Factor = 1.0

  Optimize Bandwidth = False  
End



Solver 2
  Equation = ParticleAdvector
  Procedure = "ParticleAdvector" "ParticleAdvector"

!!! defaults
!  Time Order = Integer 0
!  Particle Node Fraction = Real 1.0
!  Coordinate Initialization Method = String "nodal ordered"
!  Velocity Initialization Method = String "nodal velocity"
!  Particle Accurate At Face = Logical True

!!!! timestepping strategy
  Simulation Timestep Sizes = Logical False
  Timestep Size = Real 0.02
  Max Timestep Intervals = Integer 100

!!!! time integration 
  Runge Kutta = Logical True
!  Velocity Gradient Correction = Logical True
!  Velocity Variable Name = String Flow Solution

  
!!!! Different operators
!  Derivative Advection = Logical True
!  Difference Advection = Logical True
!  Cumulative Advection = Logical True

! The variable to compute the norm for
  Norm Variable Index = Integer 1   

! Show some info in the end
  Particle Info = Logical True
  Particle Time = Logical True


! The variables, rather exhaustive list here
  Variable 1 = String "Coordinate 1"
  Variable 2 = String "Coordinate 2"
  Variable 3 = String "Pressure"

! The internal variables for this solver
  Variable 4 = String "Particle Status"
  Variable 5 = String "Particle Distance"
  Variable 6 = String "Particle time"
  Variable 7 = String "Particle Velocity_Abs"
End 


Solver 3
  Exec Solver = never

  Equation = "ResultOutput"
  Procedure = "ResultOutputSolve" "ResultOutputSolver"
  Output File Name = "case"
  Output Format = "vtu"

  Show Variables = Logical True
End
 

Material 1
  Name = Fluid
  Density = 1
  Viscosity = 1
End


Boundary Condition 1
  Name = Walls
  Target Boundaries = 1

  Velocity 1 = 0.0
  Velocity 2 = 0.0
End

Boundary Condition 2
  Name = Inlet
  Target Boundaries = 2

  Velocity 1 = 0.0
  Velocity 2 = Variable Coordinate 1
    Real MATC "-4*tx*(1-tx)"
End

Boundary Condition 3
  Name = Outlet
  Target Boundaries = 3

  Velocity 2 = 0.0
End

Solver 2 :: Reference Norm = 8.54664441E-01


