! This is a test case for regulating velocity field so that we never
! have normal components that would point out of the domain.
! This may be undesirable when we follow particles, for example.
! Also this may have diagnostic uses.
!
! P.R. 18.4.2023

Header
  CHECK KEYWORDS Warn
  Mesh DB "." "slab"
  Include Path ""
  Results Directory "results"
End

Simulation
  Max Output Level = 20

  Coordinate System = "Cartesian"
  Simulation Type = "Steady State"
  Steady State Max Iterations = 1
  Output Intervals = 0

  Post File = "case.vtu"
  Extruded Mesh Levels = 8
End

Constants
  Permittivity Of Vacuum = 1.0
End 

Body 1
  Name = "Body1"
  Equation = 1
  Material = 1
End

Equation 1
  Name = "Equations"
  Active Solvers(3) = 1 2 3 
End

Solver 1
  Equation = "MapCoordinate"
  Procedure = "StructuredMeshMapper" "StructuredMeshMapper"
  Active Coordinate = Integer 3
End 

Solver 2
  Equation = "Stokes"
  Procedure = "IncompressibleNSVec" "IncompressibleNSSolver"

  Linear System Solver = Iterative
  Linear System Iterative Method = BiCGStabL
  Linear System Max Iterations = 500
  Linear System Convergence Tolerance = 1.0e-10
  Linear System Preconditioning = ILU1
  Linear System Residual Output = 20

  Nonlinear System Max Iterations = 1
  Stokes Flow = Logical True
End

Solver 3
  Equation = FixTangent
  Procedure = "FixTangentVelo" "FixTangentVelo"

! This is also the default. Applicable only in 3D. 
  Active Coordinate = 3
!  Fix Downstream Only = Logical True

! Also really apply i.e. alter flow solution?
  Fix Tangent Velocity = Logical True
End

Material 1
  Name = "Material"
  Density = 1
  Relative Permittivity = 1
  Density = 1.0
  Viscosity = 1.0
End

Boundary Condition 1
  Name = "South"
  Target Boundaries(1) = 1 
  Velocity 2 = 0.0
End

Boundary Condition 2
  Name = "East"
  Target Boundaries(1) = 2
  Velocity 2 = 0.0
  Velocity 3 = 0.0
End 

Boundary Condition 3
  Name = "North"
  Target Boundaries(1) = 3
  Velocity 2 = 0.0
End

Boundary Condition 4
  Name = "West"
  Target Boundaries(1) = 4
  Velocity 1 = 1.0
  Velocity 2 = 0.0
  Velocity 3 = 0.0
End 


Boundary Condition 5
  Name = "Bottom"
  Bottom Surface = Variable "Coordinate 1"
    Real MATC "0.05*sin(2*pi*tx)"
  Normal-Tangential Velocity = True
  Velocity 1 = 0.0

! This is the flag that the solver looks at!
  Tangent Surface = Logical True
End 

Boundary Condition 6
  Name = "Top"
  Top Surface = Variable "Coordinate 1"
    Real MATC "0.2+0.05*sin(3*pi*tx)"
  Normal-Tangential Velocity = True
  Velocity 1 = 0.0
  
  Tangent Surface = Logical True
End 

Solver 2 :: Reference Norm = 6.21121718E-01
! downstream only = true
!Solver 3 :: Reference Norm = 8.90248501E-02  
! downstream only = false
Solver 3 :: Reference Norm = 9.78244220E-02
Solver 3 :: Reference Norm Tolerance = 0.02



!End Of File
