!---------------------------------------------------------
! Test case for the consistency of partitioning.
! This case is partitoned exactly using Metis partitioning
! into 6 partitions. The partitioning is enforced to being
! contiguous. Without the flag it would not be.
!
! P.R. 3.10.2017
!------------------------------------------------------------

Header
  Mesh DB "." "maze"
  Include Path ""
  Results Directory ""
End 


Simulation
  Max Output Level = 5
  Coordinate System = Cartesian 
  Coordinate Mapping(3) = 1 2 3
  Simulation Type = Steady
  Steady State Max Iterations = 1
  Output Intervals = 0

  Mesh Levels = 1
End

Constants
  Gravity(4) = 0 -1 0 9.82
  Stefan Boltzmann = 5.67e-8
End

Body 1
  Name = "Body"
  Equation = 1
  Material = 1 
End

Equation 1
  Name = "CheckPart"
  Active Solvers = 1 
End


Material 1
  Name = "None"
End


Solver 1
  Equation = SaveScalars
  Procedure = "SaveData" "SaveScalars"

  Parallel Reduce = Logical True

  Filename = f.dat

  Operator 1 = partitions
  Operator 2 = partition checksum
  Operator 3 = partition neighbours checksum

  Show Norm Index = 1

End 

! check that there are 6 partitions 
Solver 1:: Reference Norm = 6
RUN

! check the global numbering 
Solver 1:: Show Norm Index = 2
Solver 1:: Reference Norm = 1.76376320E+08
RUN

! check the neighbours
Solver 1:: Show Norm Index = 3 
Solver 1:: Reference Norm = 1.30484000E+05
RUN 
