!echo on
!Check Keywords "Warn"
$p0= 101032.0
$gauge=0.0
$grav=0 ! 9.81 switch off, as else own weight would deform more than anything else
$T0 = 273.15
$deltaT = 20.0
$dt = 3600*24
$outputinterv= 3600*24/dt
$daysinsimulation=4 ! increase to 60 for full case
$dtint=daysinsimulation*24*3600/dt !
$filename="gibson_consolitation"
$elmnttype="p:1 b:1"
$directsolver="UMFPACK"

Header :: Mesh DB "." "biot"


Simulation
  Max Output Level = 5
  Coordinate System = Cartesian 2D
  Simulation Type = Transient
  TimeStepping Method = BDF
  BDF Order = 1
  Timestep Sizes(1) = $dt
  TimeStep Intervals(1) = $dtint
  !Output Intervals(1) = $outputinterv ! not needed, as ReultOutputSolver
  Steady State Max Iterations = 10 ! this needs to be reduced to max 2 if running Lagrangian mesh scheme
  Steady State Min Iterations = 1
  !Output File = $filename".result"
  Initialize Dirichlet Conditions = Logical False
  Restart Before Initial Conditions = Logical True
  Coordinate Mapping(3) = Integer 1 2 3
End

Constants
  Gravity(4) = 0 -1 0 $grav
  Reference Temperature = Real 273.15
  Reference Pressure = Real $p0
  Gas Constant = Real 8.3145
  Permafrost DeltaT = Real 1.0
  Permafrost eps = Real 0.99
  Avogadro Number = Real 6.022140857E23
End

Body 1
  Equation = 1
  Material = 1
  Body Force = 1
  Initial Condition = 1
End

Body Force  1
  Stress Bodyforce at IP = Logical True
  Stress Bodyforce 2 = Variable PFTemp, GWPressure, Porosity, Salinity, Xi
    Real Procedure "ElmerIceSolvers" "GetElasticityForce"
  Stress Bodyforce 1 = 0.0
  Stress Pressure = Equals GWPressure
End

Material 1
  Density = 1.0 ! Just a dummy
  Rock Material File = File "./gibson.dat"
  Rock Material ID = Integer 1
  Conductivity Arithmetic Mean Weight = Real 0.5
  Radiogenic Reference Depth = Real 10000.0
  Permafrost Phase Change Model = String "Hartikainen"
  ! Constant elastic properties the Gibson benchmark (Table B: E_s,0 = 5e6 Pa, nu_s = 0.4).
  ! Decoupled from porosity so the material stays at reference properties;
  Youngs Modulus = Real 5.0e6
  Poisson Ratio  = Real 0.4
  Temperature Variable = Equals "PFTemp"
  Porosity Variable = Equals "Porosity"
  Salinity Variable = Equals "Salinity"
  Pressure Variable = Equals "GWPressure"
  Stress Invariant Velocity Variable = Equals "Stress Invariant Velocity"
End

Equation 1
  Active Solvers(7) = 1 2 3 4 5 6 7
End

! flow depth
Solver 1
  Equation = "Flowdepth"
  Exec Solver = "Never"

  Procedure = File "ElmerIceSolvers" "FlowDepthSolver"
  Variable = String "Depth"
  Variable DOFs = 1
  Freesurf Name = String "Surface"

  Linear System Solver = "Direct"
  Linear System Direct Method = $directsolver
  Gradient = Real -1.0E00

  Calc Free Surface = Logical False
End


! dummy (pre-processing) solver setting temperature
Solver 2
  Equation = "Permafrost"
  Element = $elmnttype
  Exec Solver = "Never"
  Output Xi = Logical True
   Variable = "PFTemp"
  Procedure = "ElmerIceSolvers" "PermaFrostHeatTransfer"
  Linear System Solver = Direct
  Linear System Direct Method = $directsolver
  Output Xi = Logical True
  Steady State Convergence Tolerance = 1e-03
  Exported Variable 1 = -dofs 1 "Salinity"
  Initialize Steady State = Logical False
End

! groundwater flow (Darcy) yielding pressure as solution
Solver 3
  Equation = "Darcy"
  Element = $elmnttype
  Variable = -dofs 1 "GWPressure"
  Procedure = "ElmerIceSolvers" "PermafrostGroundwaterFlow"
  !Linear System Solver = Direct
  !Linear System Direct Method = "umfpack"
  Linear System Solver = Iterative
  Linear System Iterative Method  = BiCGStab
  Linear System Max Iterations = 5000
  Linear System Convergence Tolerance = 1e-09
  Linear System Residual Output = 0
  Nonlinear System Max Iterations = 50
  Nonlinear System Convergence Tolerance = 1e-06
  Steady State Convergence Tolerance = 1e-03
  Linear System Nullify Guess = Logical True
  Initialize Steady State = Logical False
  Compute Deformation = Logical True
  ! needed to get gorundwater flux in output
  Exported Variable 1 = -IP "Groundwater Flux 1"
  Exported Variable 2 = -IP "Groundwater Flux 2"
End


! lin ealisticyt solver for bedrock deformation
Solver 4
  Equation = "Bedrock Deformation"
  Procedure = "StressSolve" "StressSolver"
  Variable = String "bedrock deformation"
  Variable DOFs = Integer 2
  Calculate Stresses = True
  Calculate Strains = True
  Displace Mesh = Logical False ! switch to True for Lagrangian scheme
  Quasi Stationary = Logical True ! no mass-matrix, despite finite densities

  Linear System Solver = Direct
  Linear System Scaling = Logical False
  Linear System Direct Method = $directsolver
  Linear System Residual Output = 0

  Nonlinear System Convergence Tolerance = 1.0e-7
  Nonlinear System Max Iterations = 1

  Steady State Convergence Tolerance= 1.0e-3
  Bedrock Deformation Velocity = Logical True
  Optimize Bandwidth = True
  Bubbles in global system = False
End

! computes invariant from stress needed in Darcy source term
Solver 5
  Equation = "Compute Invariant"
  Element = $elmnttype
  Procedure = "ElmerIceSolvers" "PermafrostStressInvariant"
  Variable = -dofs 1 "Stress Invariant"
  Stress Variable Name = String "Stress"
  Pressure Variable = String "GWPressure"
  Exported Variable 1 = -dofs 1 "Stress Invariant Velocity"
  Bubbles in global system = False
End

!computes change in porosity based on strain from lin. elasiticyt solver
!  Switched off for the constant-property Gibson run: porosity is held at the
!  initial reference value eta0 = 0.4 so the material stays decoupled from it.
Solver 6
   Equation = "Compute Porosity"
   !Exec Solver = "Never"
   Exec Solver = "After Timestep"
   Procedure = "ElmerIceSolvers" "PermafrostPorosityEvolution"
   Element = $elmnttype
   Variable = -dofs 1 Porosity
   Strain Variable = String "strain"
   Temperature Variable = String "PFTemp"
   Salinity Variable = String "Salinity"
   Pressure Variable = String "GWPressure"
End


Solver 7
  Equation = "ResultOutput"
  !Element = $elmnttype
  Procedure = "ResultOutputSolve" "ResultOutputSolver"
  Exec Solver = "After Timestep"
  Exec Interval = $outputinterv
  VTU Format = True
  Output File Name = $filename
  Variable 1 = "PFTemp"
  Variable 2 = "GWPressure"
  Variable 3 = "Porosity"
  Variable 4 = "Stress Invariant"
  Variable 5 = "Stress Invariant Velocity"
  Variable 6 = "Groundwater Flux"
!  Variable 7 = "Groundwater Flux 2"
  Variable 7 = "Bedrock Deformation"
  Variable 8 = "Stress"
  Variable 9 = "Strain"
  Save Geometry Ids = True
  Discontinuous Galerkin = Logical True
  Discontinuous Bodies = Logical True
End
Solver 8
  Exec Solver = "After Timestep"
  !Exec Solver = "Never"
  Exec Interval = 1 !$outputinterv
  Equation = "SaveLine"
  Procedure = "SaveData" "SaveLine"
  Filename = $filename"-uppersurface.dat"
  File Append = True
  !Parallel Reduce = Logical True
  Polyline Coordinates(2,2) = 0.0 5.0 5.0 5.0
  Optimize Node Ordering = Logical True
  Variable 1 = "PFTemp"
  Variable 2 = "GWPressure"
  Variable 3 = "Porosity"
  Variable 4 = "Stress Invariant"
  Variable 5 = "Stress Invariant Velocity"
  Variable 6 = "Bedrock Deformation"
  Variable 7 = "Stress"
  Variable 8 = "Strain"
End


Initial Condition 1
   PFTemp = Real $T0 + deltaT
   GWPressure = Real $p0
   Porosity = Real 0.4
   Xi = Real 1.0
   Salinity = Real 0.0
End

Boundary Condition 1
  Name = "sides"
  Target Boundaries(1) = 4
  Bedrock Deformation 1 = Real 0.0
  GWPressure = Variable Coordinate 2
    Real MATC "p0 + grav*1000*(5.0 - tx(0))"
  PFTemp = Real $T0 + deltaT
End

Boundary Condition 2
  Name = "bottom"
  Target Boundaries = 3
  PFTemp = Real $T0 + deltaT
  Bedrock Deformation 2 = Real 0.0
  Bedrock Deformation 1 = Real 0.0
End

Boundary Condition 3
  Name = "top free"
  Target Boundaries = 2
  GWPressure = Real $p0
  Save Line = Logical True
  Depth = Real 0.0
  Normal Force = $-p0
End

Boundary Condition 4
  Name = "top force"
  Target Boundaries = 1
  GWPressure = Real $p0
  Save Line = Logical True
  Depth = Real 0.0
  !Normal Force = $(1.0e05 + p0)
  Normal Force = Variable Time
    Real MATC "-((1.0e05)*(tx[0] >  dt)+ p0)"

End

! The norms seems close enough to save the test.
Solver 3 :: Reference Norm = 60039.130
Solver 3 :: Reference Norm Tolerance = 1E-05
Solver 4 :: Reference Norm = 0.46321654E-02
Solver 4 :: Reference Norm Tolerance = 1E-04

