! Reference for the real case.
!
! P.R. 19.4.2018

Check Keywords "Warn"

Header
  Mesh DB "." "plate"
End

Simulation
  Max Output Level = 10
  Coordinate System = "Cartesian"
  Simulation Type = Steady
  Steady State Max Iterations = 1
  Output Intervals(1) = 1

  Coordinate Scaling = 1.0e-3
End

Body 1
  Name = "Wire"
  Equation = 1
  Material = 1
  Body Force = 1
End

Body 2
  Name = "Air"
  Equation = 1
  Material = 2
End

Material 1
  Name = "Cu"
  Relative Permittivity = 1
  Relative Permeability = 1
  Electric Conductivity = 58e6
End

Material 2
  Name = "Air"
  Relative Permittivity = 1.0
  Relative Permeability = 1.0
  Electric Conductivity = 0.0
End 

Equation 1
  Name = "Eqs"
  Active Solvers(2) = 1 2 
End


Solver 1
  Equation = "MGDynamics"

  Variable = "AV"
  Procedure = "MagnetoDynamics" "WhitneyAVSolver"

  Fix Input Current Density = Logical False

!  Linear System Symmetric = True
  Linear System Solver = "Iterative"
  Linear System Preconditioning = none
  Linear System Residual Output = 10
  Linear System Max Iterations = 1000
  Linear System Iterative Method = BiCGStabl
  Linear System Convergence Tolerance = 1.0e-8
  BicgStabl Polynomial Degree = 5
End


Solver 2
  Equation = "MGDynamicsCalc"

  Procedure = "MagnetoDynamics" "MagnetoDynamicsCalcFields"
  Linear System Symmetric = True

  Potential Variable = String "AV"

  Calculate Current Density = Logical True
  Calculate Electric Field = Logical True
  Calculate Magnetic Field Strength = Logical True
  Calculate Joule Heating = True

  Steady State Convergence Tolerance = 0
  Linear System Solver = "Iterative"
  Linear System Preconditioning = None
  Linear System Residual Output = 0
  Linear System Max Iterations = 5000
  Linear System Iterative Method = CG
  Linear System Convergence Tolerance = 1.0e-8


  Calculate Nodal Fields = Logical False
  Impose Body Force Potential = Logical True
  Impose Body Force Current = Logical True

  Discontinuous Bodies = True
End


Solver 3
  Exec Solver = after all
  Equation = "ResultOutput"
  Procedure = "ResultOutputSolve" "ResultOutputSolver"
  Output File Name = wire
  Vtu format = Logical True
  Discontinuous Bodies = Logical True
End



Body Force 1
  Name = "Current Density"
  Current Density 1 = 0.0
  Current Density 2 = 0.0 
  Current Density 3 = 1.0e12
End


Boundary Condition 1
  Name = "WireStart"
  Target Boundaries(1) = 1 

  AV {e} 1 = Real 0.0
  AV {e} 2 = Real 0.0
  AV = Real 0.0
End

Boundary Condition 2
  Name = "WireSurface"
  Target Boundaries(1) = 2
End

Boundary Condition 3
  Name = "WireEnd"
  Target Boundaries(1) = 3

  AV {e} 1 = Real 0.0
  AV {e} 2 = Real 0.0
  AV = Real 0.0
End

Boundary Condition 4
  Name = "AirStart"
  Target Boundaries(1) = 4

  AV {e} 1 = Real 0.0
  AV {e} 2 = Real 0.0
End


Boundary Condition 5
  Name = "AirSurface"
  Target Boundaries(1) = 5

  AV {e} 1 = Real 0.0
  AV {e} 2 = Real 0.0
End

Boundary Condition 6
  Name = "AirEnd"
  Target Boundaries(1) = 6

  AV {e} 1 = Real 0.0
  AV {e} 2 = Real 0.0
End


Solver 1 :: Reference Norm = 5.25441530E-06
