! This is used to compute an FSI field for the case
! of an expanding box. 

Check Keywords Warn

$p0 = 1.0e-6

Header
  Mesh DB "." "box"
End

Constants
  Gravity(4) = Real 0 -1 0 9.81 
  Stefan Boltzmann = Real 5.67e-8
End

Simulation
  Coordinate System = Cartesian
  Simulation Type = Steady State
  Steady State Max Iterations = 1

! this file is needed for the next phase
  Output File = "../ac.result"

!  Post File = "ac.ep"
End

Body 1
  Equation = 1
  Material = 1
End

Body 2
  Equation = 2
  Material = 2
End


Material 1
  Name = "Fluid"
  Density = Real 1.0
  Viscosity = Real 1.0
  Youngs Modulus = Real 1.0
  Poisson Ratio = Real 0.3
End

Material 2
  Name = "Structure"
  Density = Real 1.0
  Youngs Modulus = Real 1.0e6
  Poisson Ratio = Real 0.3
End


Solver 1
  Equation = Elasticity Solver
  Variable = Displacement
  Variable DOFs = 2
  Procedure = "ElasticSolve" "ElasticSolver"
  Time Derivative Order = 2

  Linear System Solver = Direct
  Linear System Direct Method = umfpack

  Nonlinear System Newton After Tolerance = 5.0e-2
  Nonlinear System Newton After Iterations = 0
  Nonlinear System Max Iterations = 1
  Nonlinear System Convergence Tolerance = 1.0e-4
  Nonlinear System Relaxation Factor = 1.0

  Steady State Convergence Tolerance = 1.0e-4
End

Solver 2
  Equation = Mesh Update
  Linear System Solver = Direct
  Linear System Direct Method = umfpack
  Linear System Symmetric = True
  Steady State Convergence Tolerance = 1.0e-4
  Nonlinear System Relaxation Factor = 1.0
End
 
Solver 3
  Variable = String AC

  Displacement Variable Name = String "Mesh Update"
  Displaced Shape = Logical True

  Reference Pressure = Real $ p0

  Equation = CompressibilitySolve
  Procedure = "ArtificialCompressibility" "CompressibilitySolver"

  Linear System Solver = Iterative 
  Linear System Iterative Method = BiCGSTAB
  Linear System Preconditioning = ILU
  Linear System Convergence Tolerance = 1.0e-12
  Linear System Max Iterations = 200
  Linear System Symmetric = True
End


Solver 4
  Exec Solver = never

  Equation = String SaveData
  Procedure = File "SaveData" "SaveScalars"
  Filename = fb.dat

  Variable 1 = String "Displacement 1"
  Operator 1 = String "volume"
  Variable 2 = String "Ac"
  Operator 2 = String "int mean"
End


Equation 1
  Active Solvers(2) = 2 3
End

Equation 2
  Active Solvers = 1
  Plane Stress = Logical True
End




Boundary Condition 1
  Name = "Inflow"
  Target Boundaries(1) = 1
  Mesh Update 1 = Real 0
  Mesh Update 2 = Real 0
End

Boundary Condition 2
  Name = "Fixed fluid wall"
  Target Boundaries(1) = 2
  Mesh Update 1 = Real 0
  Mesh Update 2 = Real 0
End

Boundary Condition 3
  Name = "Fluid-structure boundary"
  Target Boundaries(1) = 3
  Normal Force = $ -1.0*p0
  Mesh Update 1 = Equals Displacement 1
  Mesh Update 2 = Equals Displacement 2
End

Boundary Condition 4
  Name = "Fixed structure"
  Target Boundaries(1) = 4
  Displacement 1 = Real 0
  Displacement 2 = Real 0
End

Boundary Condition 5
  Name = "Fluid symmetry"
  Target Boundaries(1) = 5
  Mesh Update 2 = Real 0
End

Boundary Condition 6
  Name = "Structure symmetry"
  Target Boundaries(1) = 6
  Displacement 2 = Real 0
End



