! Test cases for using the compressibility field
! Activate solver 4) for nonlinear response. 

Check Keywords Warn

Header
  Mesh DB "." "box"
End

Constants
  Gravity(4) = Real 0 -1 0 9.81 
  Stefan Boltzmann = Real 5.67e-8
End

Simulation
  Max Output Level = 5
  Coordinate System = Cartesian
  Simulation Type = Transient
  Steady State Max Iterations = 200
  Steady State Min Iterations = 2
  Output Intervals = 0
  Post File = "acc.ep"

  TimeStepping Method = BDF  
  BDF Order = 1         
  Timestep Sizes = 1.0
  TimeStep Intervals = 10 

  Restart File = "../ac.result"
  Restart Position = 1
End

Body 1
  Equation = 1
  Material = 1
  Initial Condition = 1
End

Body 2
  Equation = 2
  Material = 2
  Initial Condition = 1
End


Initial Condition 1
  Velocity 1 = 0.0
  Velocity 2 = 0.0
  Pressure = 0.0
  Displacement 1 = 0.0
  Displacement 2 = 0.0
End

Material 1
  Name = "Fluid"
  Density = Real 1.0
  Viscosity = Real 1.0
  Youngs Modulus = Real 1.0
  Poisson Ratio = Real 0.3
  Compressibility Model = "Artificial Compressible"
  Artificial Compressibility  = Equals ac
End

Material 2
  Name = "Structure"
  Density = Real 1.0
  Youngs Modulus = Real 1.0e6
  Poisson Ratio = Real 0.3
End

Solver 1
  Equation = Navier-Stokes
  Stabilize = Logical True
!  Linear System Solver = Direct

! ------------------------
  Linear System Solver = Iterative
  Linear System Iterative Method = BiCGStab
  Linear System Preconditioning = ILU1
  Linear System Max Iterations = 200
  Linear System Convergence Tolerance = 1.0e-6
  Linear System Residual Output = 10
! ------------------------

  Linear System Direct Method = umfpack
  Nonlinear System Max Iterations = 1
  Nonlinear System Convergence Measure = "solution"
  Nonlinear System Convergence Tolerance = 1.0e-4
  Nonlinear System Newton After Tolerance = 5.0e-2   
  Nonlinear System Newton After IterationS = 1     
  Nonlinear System Relaxation Factor = 1.0

  Calculate Viscous Force = Logical True
  Steady State Convergence Measure = "solution"
  Steady State Convergence Tolerance = 1.0e-3
End


Solver 2
  Equation = Elasticity Solver
  Variable = Displacement
  Variable DOFs = 2
  Procedure = "ElasticSolve" "ElasticSolver"
  Time Derivative Order = 2

  Linear System Solver = Direct
  Linear System Direct Method = umfpack

  Nonlinear System Newton After Tolerance = 5.0e-2
  Nonlinear System Newton After Iterations = 0
  Nonlinear System Max Iterations = 1
  Nonlinear System Convergence Tolerance = 1.0e-4
  Nonlinear System Convergence Measure = "solution"
  Nonlinear System Relaxation Factor = 1.0

  Steady State Convergence Measure = "solution"
  Steady State Convergence Tolerance = 1.0e-3
End

Solver 3
  Equation = Mesh Update
  Linear System Solver = Direct
  Linear System Direct Method = umfpack
  Linear System Symmetric = True
  Nonlinear System Relaxation Factor = 1.0

  Steady State Convergence Tolerance = 1.0
End
 

Solver 4
  Exec Solver = never
  Equation = ArtificialCompressibilitySolve
  Procedure = "ArtificialCompressibility" "CompressibilityScale"
  Artificial Compressibility Scale = Logical True
  Steady State Convergence Tolerance = 0.1
  Nonlinear System Relaxation Factor = 1.0
End


Solver 5
  Exec Solver = never
  Equation = String SaveData
  Procedure = File "SaveData" "SaveScalars"
  Filename = f2.dat

  Variable 1 = String "time"
  Operator 1 = String "max"
  Variable 2 = String "Pressure"
  Operator 2 = String "max"
  Variable 3 = String "Pressure"
  Operator 3 = String "volume"
  Variable 4 = String "Flow Solution"
  Operator 4 = String "nonlinear change"
  Variable 5 = String "Displacement"
  Operator 5 = String "nonlinear change"
End


Equation 1
  Active Solvers(2) = 1 3
End

Equation 2
  Active Solvers = 2
  Plane Stress = True
End


Boundary Condition 1
  Name = "Inflow"
  Target Boundaries(1) = 1
  Velocity 1 = Variable Coordinate 2
    MATC "0.001*(1+tx)*(1-tx)"
  Velocity 2 = Real 0
  Mesh Update 1 = Real 0
  Mesh Update 2 = Real 0
End

Boundary Condition 2
  Name = "Fixed fluid wall"
  Target Boundaries(1) = 2
  Velocity 1 = Real 0
  Velocity 2 = Real 0
  Mesh Update 1 = Real 0
  Mesh Update 2 = Real 0
End

Boundary Condition 3
  Name = "Fluid-structure boundary"
  Target Boundaries(1) = 3
  Fsi BC = Logical True
  Mesh Update 1 = Equals Displacement 1
  Mesh Update 2 = Equals Displacement 2
  Velocity 1 = Equals Mesh Velocity 1
  Velocity 2 = Equals Mesh Velocity 2
End

Boundary Condition 4
  Name = "Fixed structure"
  Target Boundaries(1) = 4
  Displacement 1 = 0
  Displacement 2 = 0
End

Boundary Condition 5
  Name = "Fluid symmetry"
  Target Boundaries(1) = 5
  Mesh Update 2 = Real 0
  Velocity 2 = 0
End

Boundary Condition 6
  Name = "Structure symmetry"
  Target Boundaries(1) = 6
  Displacement 2 = 0
End

Solver 3 :: Reference Norm = Real 3.19640024634804034E-003
RUN

!End

