! This is a variation of the base case in that the
! Temperature is solved in a coarser mesh, results are automatically
! interpolated and the heat flux is solved in a finer resolution mesh.
! This is obtained by the keywords "Mesh Levels" and "Relative Mesh Level".
!
! P.R. 20.3.2023

Header
  CHECK KEYWORDS Warn
  Mesh DB "." "angle"
  Include Path ""
  Results Directory ""
End

Simulation
  Max Output Level = 5

  Coordinate System = "Cartesian"
  Simulation Type = "Steady State"
  Steady State Max Iterations = 1
  Output Intervals = 0

  Post File = "TempDist-fine.vtu"
  Mesh Levels = 3
End


Body 1
  Name = "Body"
  Body Force = 1
  Equation = 1
  Material = 1
End

Equation 1
  Name = "Equations"
  Active Solvers(2) = 1 2
End

Solver 1
  Exec Solver = "Always"
  Equation = "Heat Equation"
  Variable = "Temperature"

  Linear System Solver = "Iterative"
  Linear System Iterative Method = "BiCGStab"
  Linear System Max Iterations = 500
  Linear System Convergence Tolerance = 1.0e-08
  Linear System Abort Not Converged = True
  Linear System Preconditioning = "ILU0"
  Linear System Residual Output = 10

  Nonlinear System Max Iterations = 1

  Relative Mesh Level = Integer -1 
End


Solver 2
  Equation = ComputeFlux
  Procedure = "FluxSolver" "FluxSolver"

  Calculate Flux = Logical True
  Target Variable = String Temperature
  Flux Coefficient = String "Heat Conductivity"

! these are taken care by the defaults
!  Linear System Solver = "Iterative"
!  Linear System Iterative Method = "cg"
!  Linear System Preconditioning = None
!  Linear System Residual Output = 10
!  Linear System Max Iterations = Integer 500
!  Linear System Convergence Tolerance = 1.0e-10
End

Material 1
  Name = "Material"
  Density = 1
  Heat Conductivity = 3
End

Body Force 1
  Name = "BodyForce"
  Heat Source = 1
End

Boundary Condition 1
  Name = "Constraint"
  Target Boundaries(1) = 1 
  Temperature = 0
End

Solver 1 :: Reference Norm = 2.72486823E-02
Solver 2 :: Reference Norm = 1.92500432E-01

!End Of File
