! Testing for the discontinuous boundary creation.
! Discontinuity is used just to create full insulation within a mesh.
! There is a 2D and a 3D case of this that differ only on the mesh used. 
!
! P.R. / 6.3.2014

Header
  CHECK KEYWORDS Warn
  Mesh DB "." "square"
!  Mesh DB "." "rect"
  Include Path ""
  Results Directory ""
End

Simulation
  Max Output Level = 5

  Coordinate System = "Cartesian"
  Coordinate Mapping(3) = 1 2 3

  Simulation Type = "Steady State"
  Steady State Max Iterations = 1
  Output Intervals = 1

  Post File = "discont.vtu"

! Normally we don't want to apply this
  Discontinuous Bulk Greedy = Logical False
End

Constants
  Gravity(4) = 0 -1 0 9.82
  Stefan Boltzmann = 5.67e-08
End

! The bodies should not all be renumbered to one
! since the information is used to set the discontinuity
! consistently. 
Body 1
  Name = "Body"
  Target Bodies(1) = 1
  Equation = 1
  Material = 1
End

Body 2
  Name = "Body"
  Target Bodies(1) = 2
  Equation = 1
  Material = 1
End

Body 3
  Name = "Body"
  Target Bodies(1) = 3
  Equation = 1
  Material = 1
End

Equation 1
  Name = "Equations"
  Active Solvers(2) = 1 2
End

Solver 1
  Exec Solver = "Always"
  Equation = "Heat Equation"
  Variable = "Temperature"
  Variable Dofs = 1
  Linear System Solver = "Iterative"
  Linear System Iterative Method = "BiCGStab"
  Linear System Max Iterations = 350
  Linear System Convergence Tolerance = 1.0e-08
  Linear System Abort Not Converged = True
  Linear System Preconditioning = "ILU0"
  Linear System Residual Output = 0
  Steady State Convergence Tolerance = 1.0e-05
  Stabilize = True
  Nonlinear System Convergence Tolerance = 1.0e-05
  Nonlinear System Max Iterations = 1
  Nonlinear System Newton After Iterations = 3
  Nonlinear System Newton After Tolerance = 1.0e-02
  Nonlinear System Relaxation Factor = 1.0
End


Solver 2
  Exec Solver = never

  Equation = ComputeFlux
  Procedure = "FluxSolver" "FluxSolver"

  Calculate Flux = Logical True
  Target Variable = String Temperature
  Flux Coefficient = String "Heat Conductivity"

! these are taken care by the defaults
  Linear System Solver = "Iterative"
  Linear System Iterative Method = "BIcgstab"
  Linear System Preconditioning = ILU1
  Linear System Residual Output = 0
  Linear System Max Iterations = Integer 1000
  Linear System Convergence Tolerance = 1.0e-8
End


Material 1
  Name = "Material"
  Density = 1
  Heat Conductivity = 1
End


Boundary Condition 1
  Name = "Cold"
  Target Boundaries(1) = 2 
  Temperature = 0.0
End

Boundary Condition 2
  Name = "Hot"
  Target Boundaries(1) = 5 
  Temperature = Variable "Coordinate 3"
    Real MATC "1.0+tx"
End

Boundary Condition 3
  Name = "Jump"
  Target Boundaries(1) = 3 

! This activates the discontinuous boundary creation
  Discontinuous Boundary = Logical True
End

Boundary Condition 4
  Name = "Adiabatic"
  Default Target = Logical True
End


Solver 1 :: Reference Norm = Real 0.56406326830028863
RUN
!End Of File
