! Simple case for testing the line element in 3D simulation.
! Original date: March 2020
! eelis.takala@gmail.com

$ B0 = 1
$ freq = 1/2/pi
$ omega = 2 * pi * freq
$ nstep = 1
$ periodnstep = 1
$ resistivity = 2.5e-12/(10*sqrt(2)+4)
$ cond = 1/resistivity
$ sc_conductivity = cond
$ rc_conductivity = cond

Check Keywords "Warn"
INCLUDE wire_pair/mesh.names
Header 1
   Mesh DB "." "wire_pair"
End
Constants 1
   Permittivity of Vacuum = 8.8542e-12
End
Initial Condition 1
   A {e} = Real 0
   A  = Real 0
End
Simulation 1
   Max Output Level = 12
   Coordinate System = Cartesian 3D
   Coordinate Mapping(3) = 1 2 3
   Coordinate Scaling = 0.001
   Simulation Type = Transient
   Timestepping Method = BDF
   BDF Order = 1
   Timestep intervals = $ nstep * periodnstep
   Timestep Sizes = $ 1/(freq*nstep*periodnstep)
   Steady State Max Iterations = 1
   Output Intervals = 1
End
Solver 1  !---- MagnetoDynamics, WhitneyAVSolver
   Exec Solver = Always
   Equation = "MGDynamics"
   Variable = "A"
   Procedure = "MagnetoDynamics" "WhitneyAVSolver"
   Use Piola Transform = True
   NonLinear System Relaxation Factor=1
   Export Lagrange Multiplier = Logical True
   Linear System Solver = Iterative
!   Linear System Iterative Method = BicgstabL
   Linear System Iterative Method = GCR
   Linear System GCR Restart = 100
   Linear System preconditioning = none
   Linear System Convergence Tolerance = 1.e-8
   Linear System Max Iterations = 3000
   Linear System Residual Output = 1000
   Linear System ILUT Tolerance=1e-5
   BicgstabL polynomial degree = 6
   Steady State Convergence Tolerance = 1e-08
End
Solver 2  !---- MagnetoDynamics, MagnetoDynamicsCalcFields
   Exec Solver = Always
   Equation = "MGDynamicsCalc"
   Procedure = "MagnetoDynamics" "MagnetoDynamicsCalcFields"
   Linear System Symmetric = True
   Potential Variable = String "A"
   Calculate Current Density = Logical True
   Steady State Convergence Tolerance = 0
   Linear System Solver = "Iterative"
   Linear System Preconditioning = None
   Linear System Residual Output = 1000
   Linear System Max Iterations = 5000
   Linear System Iterative Method = CG
   Steady State Convergence Tolerance = 1e-6
   Linear System Convergence Tolerance = 1.0e-8
End
Solver 3  !---- ResultOutputSolve, ResultOutputSolver
   !Exec Solver = After timestep
   Exec Solver = Never
   Equation = "ResultOutput"
   Procedure = "ResultOutputSolve" "ResultOutputSolver"
   Output File Name = thinline
   Vtu format = Logical True
   Save Geometry Ids = Logical True
End
Solver 4  !---- SaveData, SaveScalars
   Exec Solver = After timestep
!   Exec Solver = Never
   Equation = "sv"
   Procedure = "SaveData" "SaveScalars"
   Filename = wire_pair/dat/wire_pair.dat
   Show Norm Index = 3
End
Equation 1
   Active Solvers(3) = 1 2 3
End
Material 1  !---- air: generic
   Name = air
   Electric Conductivity = 1
   Relative Permeability = 1
End
Body 1  !---- Air
   Name = air
   Target Bodies(1) = $ air
   Equation = 1
   Material = 1
   Initial Condition = 1
End
Boundary Condition 1  !---- BCn Flux Parallel
   Name = BCn Flux Parallel
   Target Boundaries(4) = $ xplus xminus yplus yminus
   A {e} = Real 0
   A {e} 1 = Variable coordinate 2, time
      Real MATC "-tx(0)*cos(omega*tx(1))"

!   Magnetic Flux Density 3 = Variable time
!      Real MATC "B0*sin(omega*tx)"
End
Boundary Condition 2 !---- wire1
   Name = wire1
   Target Boundaries(1) = $ wire1
   Thin Line Conductivity = Real $ sc_conductivity
   Thin Line Crossection Area = Real 1e-6
End
Boundary Condition 3 !---- wire2
   Name = wire2
   Target Boundaries(1) = $ wire2
   Thin Line Conductivity = Real $ sc_conductivity
   Thin Line Crossection Area = Real 1e-6
End
Boundary Condition 4 !---- rc1
   Name = rc1
   Target Boundaries(1) = $ rc1
   Thin Line Conductivity = Real $ rc_conductivity
   Thin Line Crossection Area = Real 1e-6
End
Boundary Condition 5 !---- rc2
   Name = rc2
   Target Boundaries(1) = $ rc2
   Thin Line Conductivity = Real $ rc_conductivity
   Thin Line Crossection Area = Real 1e-6
End
Boundary Condition 6 !---- B
   Name = B
   Target Boundaries(2) = $ zminus zplus
   !A {e} 1 = Variable Coordinate 2
   !  Real MATC "-tx/2"
   !A {e} 2 = Variable Coordinate 1
   !  Real MATC "tx/2"

   A = Real 0
   A {e} = Real 0
   A {e} 1 = Variable coordinate 2, time
      Real MATC "-tx(0)*sin(omega*tx(1))"

!   Magnetic Flux Density 3 = Variable time
!      Real MATC "B0*sin(omega*tx)"
End
Boundary Condition 7 ! ---- wire12_t1
   Name = wire12_t1
   Target Boundaries(2) = $ wire1_t1 wire2_t1 
   A = Real 0
End
Boundary Condition 8 ! ---- wire12_t2
   Name = wire12_t2
   Target Boundaries(2) = $ wire1_t2 wire2_t2
   A = Real 0
End

Solver 4 :: Reference Norm = Real 3.3050904582824392E-002
Solver 4 :: Reference Norm Tolerance = Real 1E-03
$fprintf( stderr, "TEST CASE 1\n");
RUN
