! Test case for 2D nonconforming mortar elements
! Some timing settings inhereted from benchmark computations
! 
! This is a case to verify the maximum temperature with no angle
! of rotation but still the mortar interface being active.
! Solution is in the interval [-19.076,19.122] which is ok. 

Header
  CHECK KEYWORDS Warn
  Mesh DB "." "mortar"
  Include Path ""
  Results Directory ""
End
  
Simulation
  Max Output Level = 5
  Coordinate System = Cartesian
  Coordinate Mapping(3) = 1 2 3
  Simulation Type = Steady State
  Steady State Max Iterations = 1
  Output Intervals = 1
  Output Intervals = 0

  Post File = mortar.ep
!  Output File = case.result

  Simulation Timing = Logical True
End 

Constants
  Gravity(4) = 0 -1 0 9.82
  Stefan Boltzmann = 5.67e-08
  Permittivity of Vacuum = 8.8542e-12
  Boltzmann Constant = 1.3807e-23
  Unit Charge = 1.602e-19
End

Body 1
  Target Bodies(1) = 1
  Name = "Stator"
  Equation = 1
  Material = 1
  Body Force = 1
  Initial Condition = 1
End

Body 2
  Target Bodies(1) = 2
  Name = "Rotor-Hot"
  Equation = 1
  Material = 1
  Body Force = 2
  Initial Condition = 1
End

Body 3
  Target Bodies(1) = 3
  Name = "Rotor-Cold"
  Equation = 1
  Material = 1
  Body Force = 3
  Initial Condition = 1
End


Solver 1
!  Exec Solver = Before all
  Exec Solver = Before Timestep
  Equation = MeshDeform
  Procedure = "RigidMeshMapper" "RigidMeshMapper"
  Cumulative Displacements = Logical False
  Translate Before Rotate = Logical True
End


Solver 2
  Equation = Heat Equation
  Procedure = "HeatSolve" "HeatSolver"
  Variable = -dofs 1 Temperature
  Exec Solver = Always
  Stabilize = True
  Bubbles = False
  Lumped Mass Matrix = False
  Optimize Bandwidth = True
  Steady State Convergence Tolerance = 1.0e-5
  Nonlinear System Convergence Tolerance = 1.0e-7
  Nonlinear System Max Iterations = 1
  Nonlinear System Newton After Iterations = 3
  Nonlinear System Newton After Tolerance = 1.0e-3

  Nonlinear System Relaxation Factor = 1.0  
  Linear System Solver = Iterative
  Linear System Iterative Method = BiCGStabl
  Linear System Max Iterations = 5000
  Linear System Convergence Tolerance = 1.0e-8
  Linear System Preconditioning = ILU0
  Linear System ILUT Tolerance = 1.0e-3
  Linear System Abort Not Converged = False
  Linear System Residual Output = 20
  Linear System Precondition Recompute = 1
 
  Optimize Bandwidth = False

  Apply Mortar BCs = Logical True
  Export Lagrange Multiplier = Logical True

!  No Explicit Constrained Matrix = Logical True

  Linear System Timing = Logical True
  Solver Timing = Logical True
  Linear System Timing Cumulative = Logical True
  Solver Timing Cumulative = Logical True
End

Solver 3
! Settings mainly for timing and verification
!  Exec Solver = After All

  Equation = SaveScalars
  Procedure = "SaveData" "SaveScalars"

  Filename = scalars.dat

  Variable 1 = Temperature
  Operator 1 = dofs
  Operator 2 = partitions
  Operator 3 = min
  Operator 4 = max
  Operator 5 = norm
  Operator 6 = cpu time
  Operator 7 = wall time

!  File Append = Logical True

! Reduce just to one file when parallel
  Parallel Reduce = Logical True
  Default Parallel Operator = String max
  Parallel Operator 1 = String sum
End 

Solver 4
  Exec Solver = never
  Equation = VtuOutput
  Procedure = "ResultOutputSolve" "ResultOutputSolver"
  Output File Name = case
  Vtu Format = Logical True
  Single Precision = Logical True
End 

Equation 1
  Name = "Heat"
  Active Solvers(1) = 2
End

Material 1
  Name = "Ideal"
  Heat Conductivity = 1
  Heat Capacity = 1
  Density = 1
End

Body Force 1
  Name = "MoveToLeft"
  Mesh Translate 1 = -4.0
End

Body Force 2 
  Name = "Hot Move"
  Heat Source = 100.0
End 

Body Force 3
  Name = "Cold Move"
  Heat Source = -100.0
End 

Boundary Condition 1
  Target Boundaries(4) = 10 11 12 13
  Name = "Ambient"
  Temperature = 0
End

Boundary Condition 2
  Target Boundaries(4) = 6 7 8 9
  Name = "Mortar Outside"
End

Boundary Condition 3
  Target Boundaries(4) = 1 2 3 4
  Name = "Mortar Inside"
!  Temperature = 1

  Mortar BC =  Integer 2

!  Mortar Projector Radius = Real 1.0
!  Periodic BC = 2
!  Periodic BC Translate(3) =  4 0 0
!  Periodic BC Temperature = Logical True
End


RUN
