Header
  CHECK KEYWORDS Warn
  Mesh DB "." "beam"
  Include Path ""
  Results Directory ""
End

Simulation
  Max Output Level = 5
  Coordinate System = Cartesian
  Coordinate Mapping(3) = 1 2 3
  Simulation Type = Steady state
  Steady State Max Iterations = 1
  Post File = case.ep
End

Constants
  Gravity(4) = 0 -1 0 9.82
  Stefan Boltzmann = 5.67e-08
  Permittivity of Vacuum = 8.8542e-12
  Boltzmann Constant = 1.3807e-23
  Unit Charge = 1.602e-19
End

Body 1
  Target Bodies(1) = 1
  Equation = 1
  Material = 1
  Body Force = 1
End

Solver 1
  Equation = Linear elasticity
  Procedure = "StressSolve" "StressSolver"
  Variable = -dofs 2 Disp
  Steady State Convergence Tolerance = 1.0e-8
  Nonlinear System Convergence Tolerance = 1.0e-8
  Nonlinear System Max Iterations = 30
  Linear System Solver = Direct
  Linear System Direct Method = Umfpack

  Apply Limiter = Logical True
End


Equation 1
  Name = "Equation 1"
  Active Solvers(1) = 1
End

Material 1
  Youngs modulus = 1.0e3
  Density = 1.0
  Poisson ratio = 0.3
End

Body Force 1
  Stress Bodyforce 1 = 0
  Stress Bodyforce 2 = -20.0
  Stress Bodyforce 3 = 0
End

Boundary Condition 1
  Name = Contact
  Target Boundaries(1) = 1

  Disp 2 Lower Limit = Variable Coordinate 1
    Real MATC "-0.5-0.2*(tx-5.5)^2"
End

Boundary Condition 2
  Name = Wall
  Target Boundaries(2) = 2 4
  Disp 1 = Real 0.0
  Disp 2 = Real 0.0
End


Solver 1 :: Reference Norm = Real 0.42834696093993385
RUN
