Header
  CHECK KEYWORDS Warn
  Mesh DB "." "circle"
  Include Path ""
  Results Directory ""
End

Simulation
  Max Output Level = 5
  Coordinate System = "Cartesian"
  Coordinate Mapping(3) = 1 2 3
  Simulation Type = "Steady State"
  Steady State Max Iterations = 1
  Output Intervals = 1
! Post File = "data.ep"
  Extruded Mesh Layers = 15
End

Constants
  Gravity(4) = 0 -1 0 9.82
  Stefan Boltzmann = 5.67e-08
End

Body 1
  Name = "Body1"
  Body Force = 1
  Equation = 1
  Material = 1
End

Equation 1
  Name = "Equation1"
  Heat Equation = True
  Active Solvers(2) = 1 2 
End

Solver 2
  Equation = "Heat Equation"
  Variable = "Temperature"
  Variable Dofs = 1
  Linear System Solver = "Iterative"
  Linear System Iterative Method = "BiCGStab"
  Linear System Max Iterations = 350
  Linear System Convergence Tolerance = 1.0e-08
  Linear System Abort Not Converged = True
  Linear System Preconditioning = "ILU0"
  Linear System Residual Output = 1
  Steady State Convergence Tolerance = 1.0e-05
  Stabilize = True
  Nonlinear System Convergence Tolerance = 1.0e-05
  Nonlinear System Max Iterations = 1
  Nonlinear System Newton After Iterations = 3
  Nonlinear System Newton After Tolerance = 1.0e-02
  Nonlinear System Relaxation Factor = 1.0
End

Solver 1 
  Exec Solver = "before all" 
  Equation = "MapCoordinate"
  Active Coordinate = Integer 3
  Procedure = "StructuredMeshMapper" "StructuredMeshMapper"
End 

Material 1
  Name = "Material1"
  Density = 1
  Heat Conductivity = 1
End

Body Force 1
  Name = "BodyForce1"
  Heat Source = 1
End

Boundary Condition 1
  Name = "sides"
  Target Boundaries = 1
End

Boundary Condition 2
  Name = "bottom"
  Bottom Surface = Variable Coordinate
     Real MATC "0.1*cos(tx(0))*sin(tx(1))"
  Temperature = 0
End


Boundary Condition 3
  Name = "top"
  Top Surface = Variable Coordinate
    Real MATC "2.0 + 0.1*cos(tx(0))*sin(tx(1))"
  Temperature = 0
End

Solver 2 :: Reference Norm = Real 0.35208229


