! An linear profile changing with time.
!
! P.R. 6.11.2020

Header
  CHECK KEYWORDS Warn
  Mesh DB "." "slab"
  Include Path ""
  Results Directory ""
End

Simulation
  Max Output Level = 5

  Coordinate System = "Cartesian"
  Coordinate Mapping(3) = 1 2 3

  Simulation Type = "Transient"

! Tavels back and forth one time in 1s
  Timestep Sizes = 1
  Timestep Intervals = 20

  Steady State Max Iterations = 1
  Output Intervals = 1

  Post File = case.vtu
End

Constants
  Gravity(4) = 0 -1 0 9.82
  Stefan Boltzmann = 5.67e-08
End

Body 1
  Name = "Body"
  Equation = 1
  Material = 1
End

Equation 1
  Name = "Equations"
  Active Solvers(2) = 1 2
End

Solver 1
  Exec Solver = "Always"
  Equation = "Heat Equation"
  Variable = "Temperature"

  Linear System Solver = direct
  Linear System Direct Method = "umfpack"

  Steady State Convergence Tolerance = 1.0e-05

  Nonlinear System Convergence Tolerance = 1.0e-05
  Nonlinear System Max Iterations = 1
End


! Create pateremers as variables so that they can be saved to the
! vtu files, for example. Have this executed before results are
! saved. 
Solver 2
  Exec Solver = "before saving"
  Equation = SaveBC
  Procedure = "SaveData" "SaveBoundaryValues"

  Parameter 1 = "External Temperature"
!  Parameter 2 = "Heat Transfer Coefficient"
End

Solver 3
  Exec Solver = never

  Equation = SaveLine
  Procedure = "SaveData" "SaveLine"

  Filename = f.dat
End


Material 1
  Name = "Material"
  Density = 1
  Heat Conductivity = 1.0
  Heat Capacity = 10.0  
End


Boundary Condition 1
  Name = "Bottom"
  Target Boundaries(1) = 1 
End

Boundary Condition 2
  Name = "Right"
  Target Boundaries(1) = 2 
  Temperature = 0
End

Boundary Condition 3
  Name = "Top"
  Target Boundaries(1) = 3

  External Temperature = Variable "coordinate 1"
    Procedure "TimeProfile" "TimeProfile"

  Timeprofile = Variable "dummy"
    Real
      0.0 0.0  
      0.2 0.0
      0.4 0.0
      0.6 0.0
      1.0 0.0
    End 

  Timeprofile point 1 = Variable "time"
    Real MATC "1.0/(1.0+tx)"
  Timeprofile point 2 = Variable "time"
    Real MATC "1.0/(2.0+tx)"
  Timeprofile point 3 = Variable "time"
    Real MATC "sin(tx)"
  Timeprofile point 4 = Variable "time"
    Real MATC "-1.0/(1.0+2*tx)"
  Timeprofile point 5 = Variable "time"
    Real MATC "-1.0/(1.0+3*tx)"


  Heat Transfer Coefficient = 1.0

  Save Line = Logical True
End

Boundary Condition 4
  Name = "Left"
  Target Boundaries(1) = 4
  Temperature = 0
End

Solver 1 :: Reference Norm = 7.64764652E-02
