! Test case for creating 1D BCs at the intersection of two 2D bodies. 
! P.R. 9.8.2024

Header
  CHECK KEYWORDS Warn
  Mesh DB "." "mesh"
  Include Path ""
  Results Directory ""
End

Simulation
  Max Output Level = 5
  Coordinate System = "Cartesian 2D"
  Simulation Type = "Steady State"
  Steady State Max Iterations = 1
  Output Intervals = 0
!  Post File = "case.vtu"
!  Ascii Output = True
End

Body 1
  Name = "Body"
  Target Bodies(1) = 1 
  Equation = 1
  Material = 1
End

Body 2
  Name = "Body"
  Target Bodies(1) = 2
  Equation = 1
  Material = 1
End

Body 3
  Name = "Body"
  Target Bodies(1) = 3
  Equation = 1
  Material = 1
End

Equation 1
  Name = "Equations"
  Active Solvers(1) = 1 
End

Solver 1
  Equation = "Heat Equation"
  Variable = "Temperature"
  Linear System Solver = "Iterative"
  Linear System Iterative Method = "BiCGStab"
  Linear System Max Iterations = 500
  Linear System Convergence Tolerance = 1.0e-08
  Linear System Abort Not Converged = True
  Linear System Preconditioning = "ILU0"
  Linear System Residual Output = 10
  Nonlinear System Max Iterations = 1
End

Material 1
  Name = "Material"
  Density = 1
  Heat Conductivity = 3
End

! From .grd file
!  1        3        1
!  2        0        1
!  3        4        1
!  4        2        1
!  5        3        2
!  6        0        2
!  7        4        2  

Boundary Condition 1
  Name = "one-two"
  Intersection Body(2) = Integer 1 2 
  Heat Flux = 1
End

Boundary Condition 2
  Name = "two-three"
  Intersection Body(2) = Integer 2 3
  Heat Flux = 1
End

Boundary Condition 3
  Name = "one-zero"
  Intersection Body(2) = Integer 1 0 
  Temperature = 0
End

Boundary Condition 4
  Name = "zero-two"
  Intersection Body(2) = Integer 0 2
End

Boundary Condition 5
  Name = "three-zero"
  Intersection Body(2) = Integer 3 0
  Temperature = 0
End

Solver 1 :: Reference Norm = 1.12912172E-01
!End Of File
