Header
  Check Keywords    Warn
  Mesh DB "." "Free"
End


Constants
  Gravity(4)=  0 1 0 9.81
  Stefan Boltzmann =  5.67e-8
End


Simulation
  Max Output Level = 5
  Coordinate System = Axi Symmetric
  Simulation Type  = Steady
  
  Coordinate Mapping(3) = 2 1 3

  Steady State Max Iterations  = 200
  Output Intervals = 1
! Post File   = "Free.ep"
! Output File = "Free.result"
End


Body 1
  Equation = 1
  Material = 1
End


Solver 1
  Equation = Navier-Stokes
  Stabilize = True
  Nonlinear System Max Iterations  = 1
  Nonlinear System Convergence Tolerance = 1.0e-9
  Nonlinear System Newton After Iterations = 8
  Nonlinear System Newton After Tolerance = 1.0e-3
  Nonlinear System Relaxation Factor = 0.75
  Linear System Solver = Direct
  Linear System Direct Method = UMFPack
  Steady State Convergence Tolerance = 1.0e-9
  Free Surface Relaxation Factor = Real 1
End

Equation 1
  Active Solvers(1) = 1
End

Material 1
  Viscosity = 1
  Density = 1
End


Boundary Condition 1
  Target Boundaries(2) = 3 5
  Free Coordinate = 1
  Free Surface = True
End

Boundary Condition 2
  Target Boundaries = 4
  Velocity 1 = 0
  Free Moving = True
End

Boundary Condition 3
  Target Boundaries = 1

  Velocity 2 = Variable Coordinate 1
     Real MATC "r0=3;r1=9; 1-(2*(tx-r0)/(r1-r0)-1)^2"
  Velocity 1 = 0
End

Boundary Condition 4
  Target Boundaries(2) = 2 6

  Velocity 1 = 0
  Velocity 2 = 0
End


Solver 1 :: Reference Norm = Real 0.45272765
RUN
