!------------------------------------------------------------------------------
! Perform an interpolation test to verify that the expected convergence rate is
! maintained when non-homogeneous BCs are specified for face finite elements. 
! The solver employed seeks the best approximation with respect to norm that 
! can be adjusted (L2 or energy). Now only one test solution has been implemented
! (Test Mode = Integer 1 having the exact solution q=(1,1) so the computational
! solution should actually reproduce the solution up to the accuracy of linear 
! solver).
!------------------------------------------------------------------------------

Check Keywords "Warn"

Header
  Mesh DB "." "square"
End

Simulation
  Max Output Level = 5
  Coordinate System = "Cartesian 2D"
  Simulation Type = Steady
  Output Intervals(1) = 1
  Steady State Max Iterations = 1
End

Body 1
  Equation = 1
  Material = 1
End

!----------------------------------------------------------
! Parameter for defining the energy inner product: 
!----------------------------------------------------------
Material 1
  Material Param = Real 0.0e-5
End

Equation 1
  Active Solvers(1) = 1
End

Solver 1
  Equation = "Interpolation test"
  Variable = "Q"
  Variable DOFs = 1
  Procedure = "FaceFEInterpolationTest" "BestApproximationSolver"

  ! The following keyword is needed for BDM(1) discretization:
  Second Kind Basis = Logical True

  Compute Div Error = Logical False
  Test Mode = Integer 1

  ! Element definition:
  !-----------------------------------------------------
!  Element = "n:0 e:1"      ! RT(0) over triangles
!  Element = "n:0 e:1 b:2"  ! ABF(0) over quads
  Element = "n:0 e:2"       ! BDM(1) over triangles

  Optimize Bandwidth = True
  Bubbles in Global System = Logical True
  Linear System Solver = Iterative
  Linear System Iterative Method = IDRS
  Linear System Preconditioning = none
!  Linear System Row Equilibration = Logical True
  Linear System Max Iterations = 1000
  Linear System Convergence Tolerance = 1e-11
End

Boundary Condition 1
  Target Boundaries(2) = 1 2
  Q {f} 1 = Real 1.0
  Q {f} 2 = Real 1.0 
End

! The test norm for RT(0) discretization:
!Solver 1 :: Reference Norm = Real 0.23145502

! The test norm for ABF(0) discretization:
!Solver 1 :: Reference Norm = Real 0.25000000

! The test norm for BDM(1) discretization:
Solver 1 :: Reference Norm = Real 1.15727512E-01

Solver 1 :: Reference Norm Tolerance = Real 1.0E-6