! Test for mapping results to a different mesh for visualization
! The real beef is the ResultOutputSolver instance while
! SaveScalars is used to test that the interpolation goes as intended.

Header
  CHECK KEYWORDS Warn
  Mesh DB "." "angle"
End

Simulation
  Max Output Level = 5
  Coordinate System = "Cartesian"

  Simulation Type = "Steady State"
  Steady State Max Iterations = 1
  Output Intervals = 1
End

Constants
  Gravity(4) = 0 -1 0 9.82
  Stefan Boltzmann = 5.67e-08
End

Body 1
  Name = "Body1"
  Body Force = 1
  Equation = 1
  Material = 1
End


Equation 1
  Name = "Equation1"
  Heat Equation = True
End

Solver 1
  Exec Solver = "Always"
  Equation = "Heat Equation"
  Variable = "Temperature"
  Variable Dofs = 1
  Linear System Solver = "Iterative"
  Linear System Iterative Method = "BiCGStab"
  Linear System Max Iterations = 500
  Linear System Convergence Tolerance = 1.0e-12
  Linear System Abort Not Converged = True
  Linear System Preconditioning = "ILU0"
  Linear System Residual Output = 10
  Steady State Convergence Tolerance = 1.0e-05
  Nonlinear System Convergence Tolerance = 1.0e-05
  Nonlinear System Max Iterations = 1
  Nonlinear System Newton After Iterations = 3
  Nonlinear System Newton After Tolerance = 1.0e-02
  Nonlinear System Relaxation Factor = 1.0

  Nonlinear System Consistent Norm = True
End


Solver 2
  Equation = "ResultOutput"
  Procedure = "ResultOutputSolve" "ResultOutputSolver"
  Output File Name = case
  Vtu format = Logical True

  Mesh = square
  Save This Mesh Only = Logical True 

  Scalar Field 1 = Temperature
End


Solver 3
  Mesh = square

  Equation = SaveScalars
  Procedure = "SaveData" "SaveScalars"
!  Filename = f.dat
  Show Norm = True
  Show Norm Index = 1

  Variable 1 = Temperature
  Operator 1 = int

  Parallel Reduce = Logical True
End


Material 1
  Name = "Material1"
  Density = 1
  Heat Conductivity = 1.0
End

Body Force 1
  Name = "BodyForce1"
  Heat Source = 1
End

Boundary Condition 1
  Name = "Zero"
  Target Boundaries(1) = 1
  Temperature = 1

  Filename = File f.dat
  Save Scalars = True
End


Solver 1 :: Reference Norm = Real 1.0659728
Solver 1 :: Reference Norm Tolerance = Real 1e-4
Solver 3 :: Reference Norm = Real 1.08931583
Solver 3 :: Reference Norm Tolerance = Real 1e-4
