! Reference to compare edge vs. nodal solution.

Check Keywords "Warn"

Header
Mesh DB "." "shoebox_tets"
End

Simulation
  Max Output Level = 5
  Coordinate System = "Cartesian"
  Simulation Type = Steady
  Steady State Max Iterations = 1
  Output Intervals(1) = 1
!  Post File = edge.vtu
!  Mesh Levels = 1
End

Body 1
  Equation = 1
  Material = 1
  Initial Condition = 1
End

$ beta0=41.9332032192090
$ k0=52.3961255469564
$ kc=31.4159265358979 
$ w=2*pi*(2.5e9)
$ mu0=4e-7*pi


Material 1
  Relative Permittivity = Real 1
End

Equation 1
  Active Solvers(2) = 1 2
  Angular Frequency = Real $w
End

Solver 1
  Equation = "VectorHelmholtz"
  Procedure = "VectorHelmholtz" "VectorHelmholtzSolver"

  Use Piola Transform = Logical True
  Linear System Scaling = True

  Linear System Solver = String "Iterative"
  Linear System Iterative Method = String "bicgstabl"
  BiCGstabl polynomial degree = Integer 4  
  Linear System Preconditioning Damp Coefficient = Real 0.0
  Linear System Preconditioning Damp Coefficient im = Real -1
  Mass-proportional Damping = True
  Linear System Preconditioning = String "ILU0"
  Linear System ILUT Tolerance = Real 3e-3
  Linear System Max Iterations = Integer 4000
  Linear System Convergence Tolerance = 1.0e-7
  Linear system abort not converged = false
  Linear System Residual Output = 10

  Nonlinear System Max Iterations = 1
End

Solver 2
  Equation = "calcfields"

  Procedure = "VectorHelmholtz" "VectorHelmholtzCalcFields"

  Calculate Elemental Fields = False
  Calculate Nodal Fields = True

  Calculate Electric field = True
  Calculate Energy Functional = Logical True

  Steady State Convergence Tolerance = 1
  Linear System Solver = "Iterative"
  Linear System Preconditioning = None
  Linear System Residual Output = 10
  Linear System Max Iterations = 5000
  Linear System Iterative Method = CG
  Linear System Convergence Tolerance = 1.0e-9
End


Boundary Condition 1
  Name = "Inlet"
  Target Boundaries(1) = 1
  Electric Robin Coefficient im = Real $ beta0
  Magnetic Boundary Load 2 = Variable Coordinate 1
    Real MATC "-2*beta0*k0/kc*sin(pi*tx/100e-3)"
End

Boundary Condition 2
  Name = "Sides"
  Target Boundaries(4) = 2 3 4 5 

  Electric Robin Coefficient = Real $ -474315.9900340191 
  Electric Robin Coefficient im = Real $ 474315.9900340191  
End


Boundary Condition 3
  Name = "Outlet"
  Target Boundaries(1) = 6
  Absorbing BC = Logical True
End


Solver 1 :: Reference Norm = 5.14966393E-03
Solver 1 :: Reference Norm Tolerance = 1e-3
Solver 2 :: Reference Norm = 3.99005206E-02
Solver 2 :: Reference Norm Tolerance = 1e-3
