! ------------------------------------------------------------------------------
! Solve linearized 2-D shell equations of Reissner-Naghdi type in the case of 
! a straight cylindrical shell with membrane-dominated asymptotic behaviour.
! The problem has been described in Pitkäranta et al. Shell deformation states 
! and the finite element method: a benchmark study of cylindrical shells. 
! Computer Methods in Applied Mechanics and Engineering 1995. 128:81-121. Here
! the shell equations are written in lines of curvature coordinates (y1 = 
! angular direction, y2 = axial direction) and a special solver code is
! employed to handle the problem using the exact surface parametrization.
!
! This test provides a case for verification of the p-version of FEM.
! The energy norm of the error for different p-element definitions (over the
! same 2 X 2 mesh) is found to be as follows (the shell thickness d=0.1): 
!
! p:1       Relative energy error =   0.88896260271790639
! p:2       Relative energy error =   0.29814339193540801 
! p:2 b:1   Relative energy error =   0.23711572317485702
! p:3       Relative energy error =   0.17701104808582918
! p:3 b:4   Relative energy error =    3.7584671594097008E-002
! p:4       Relative energy error =    3.4526616304186068E-002
! p:5       Relative energy error =    7.8498375202090825E-003
! p:6       Relative energy error =    2.4502183740983921E-003
! p:7       Relative energy error =    6.0846479859093326E-004
! p:8       Relative energy error =    1.3328077843970739E-004 
! p:9       Relative energy error =    6.7817426835655489E-005
!
! For a very high p errors from floating-point arithmetic may limit the 
! obtainable accuracy.
!
! The original author of this test: Mika Malinen 
! ------------------------------------------------------------------------------

Check Keywords "Warn"

Header
  Mesh DB "." "eighth"
End

Simulation
  Max Output Level = 5
  Coordinate System = Cartesian 2D
  Simulation Type = Steady
  Output Intervals(1) = 1
  Steady State Max Iterations = 1
!  Post File = "case1.vtu"
End

Body 1
  Equation = 1
  Material = 1
  Body Force = 1
End

Material 1
 Poisson Ratio = Real $1.0/3.0
 Youngs Modulus = Real 7.0e+10
 Shell Thickness = Real 0.1
End

Body Force 1 
  !
  ! The solver code has a hard-coded load that is equivalent to the following
  ! specification in order to avoid FE errors from presenting the load.
  !
  Normal Pressure = Variable Coordinate
     Real MATC "1.0e-1 * 1.0e+9 * cos(2.0*tx(0))"
End

Equation 1 :: Active Solvers(1) = 1

Solver 1
  Equation = "Shell equation"

  Variable = "U"
  Variable DOFs = 5
  Procedure = "BenchmarkShell" "ShellSolver"

  Element = "p:3 b:4"
!  Element = "p:9"

  Linear System Solver = "Iterative"
  Linear System Preconditioning = ILU2
  Linear System Max Iterations = 1000
  Linear System Convergence Tolerance = 1e-7
  Linear System Iterative Method = GCR
  Linear System GCR Restart = 100
  Linear System Abort Not Converged = False
  Steady State Convergence Tolerance = 1e-09
End

! Symmetry at y2 = 0:
! --------------------
Boundary Condition 1
  Target Boundaries(1) = 1
  U 2 = Real 0
  U 5 = Real 0
End

! Symmetry at y1 = pi/2:
! --------------------
Boundary Condition 2
  Target Boundaries(1) = 2
  U 1 = Real 0
  U 4 = Real 0
End

! Fixed end at y2 = L:
! --------------------
Boundary Condition 3
  Target Boundaries(1) = 3
  U 1 = Real 0
  U 2 = Real 0
  U 3 = Real 0
  U 4 = Real 0
  U 5 = Real 0 
End

! Symmetry at y1 = 0:
! --------------------
Boundary Condition 4
  Target Boundaries(1) = 4
  U 1 = Real 0
  U 4 = Real 0
End

Solver 1 :: Reference Norm = Real 0.17219701E-01
Solver 1 :: Reference Norm Tolerance = Real 1.0E-5