! Purpose of this case is just to ensure that when a solver
! is in all the slave solver slots it is called correct amount of times.
! Here once before and after the solver, and twice before and after
! two nonlinear iterations i.e. six times all-in-all.

Check Keywords "Warn"

Header :: Mesh DB "." "square"

Simulation
  Max Output Level = 10
  Coordinate System = Cartesian
  Simulation Type = Steady
  Output Intervals(1) = 1
  Steady State Max Iterations = 1
End

Body 1
  Equation = 1
  Material = 1
  Body Force = 1
End

Material 1
  diffusion coefficient = 1.0
End

Body Force 1 :: Field Source = Real 1
Equation 1 :: Active Solvers(1) = 1

Solver 1
  Equation = "ModelPDE"
  Variable = "Field"
  Procedure = "ModelPDE" "AdvDiffSolver"
  Linear System Solver = Direct
  Steady State Convergence Tolerance = 1e-9

! these ensure two nonlinear iterations
  Nonlinear System Max Iterations = 10
  Nonlinear System Convergence Tolerance = 1.0e-6

! All possible slave solver slots
  Pre Solvers(1) = Integer 2
  Nonlinear Pre Solvers(1) = Integer 2
  Nonlinear Post Solvers(1) = Integer 2
  Post Solvers(1) = Integer 2
End

Solver 2
  Exec Solver = never ! call only as slave solver!
  Equation = "CountSolver"
  Variable = -global Count
  Procedure = "CountSolver" "CountSolver"
End 


Boundary Condition 1
  Target Boundaries(4) = 1 2 3 4
  Field = 0.0
End


Solver 2 :: Reference Norm = 6
