Check Keywords Warn

Header
  Mesh DB "." "angle"
End

Simulation
  Max Output Level = 5
  Coordinate System = Cartesian 2D
  Simulation Type = Steady State
  Steady State Max Iterations = 1
!  Output File = "data.result"
!  Post File = "data.ep"
End

Constants
  Stefan Boltzmann = 5.67e-08
End

Body 1
  Equation = 1
  Material = 1
  Body Force = 1
End

Body Force 1
  Heat Source = 1
End

Equation 1
  Active Solvers(1) = 1 
End

Solver 1
  Equation = "Heat Equation"
  Variable = "Temperature"
  Variable Dofs = 1
  Nonlinear System Max Iterations = 1
  Nonlinear System Relaxation Factor = 1
  Steady State Convergence Tolerance = 1.0e-4

  Linear System Solver = multigrid
  Linear System Convergence Tolerance = 1.0e-07
  Multigrid Levels = Integer 10

  MG Algebraic = Logical True
  MG Pre Smoothing Iterations = 1
  MG Post Smoothing Iterations = 1
  MG Lowest Linear Solver Iterative = Logical False
  MG Lowest Linear Solver Limit = Integer 50
  MG Smoother = String sgs
  MG Preconditioning = diagonal
  MG Max Iterations = Integer 100

  MG Direct Interpolate = Logical True
  MG Strong Connection Limit = Real 0.06
  MG Positive Connection Limit = Real 1.0
  MG Boundary Priority = Integer 1
  MG Coarsening Mode = Integer 3
  MG Projection Limit = Real 0.4
  MG Eliminate Dirichlet = Logical True
  MG Eliminate Dirichlet Limit = Real 1.0e-8
End

Material 1
  Density = 1
  Heat Conductivity = 1
End

Boundary Condition 1
  Target Boundaries = 1
  Temperature = 0.0
End

Solver 1 :: Reference Norm = Real 0.825877827638E-01
Solver 1 :: Reference Norm Tolerance = Real 1.0e-4
RUN


!End Of File
