! Solves the fluid pressure for a flow between two non-concentric cylinders 
! from the Reynolds equation. The 2D interface is described by a plane.


Header
  Mesh DB "." "cylplate"
  Include Path ""
  Results Directory ""
End


Simulation
  Max Output Level = 5
  Coordinate System =  Cartesian 2D
  Coordinate Mapping(3) = 1 2 3
  Simulation Type = Steady
  Steady State Max Iterations = 1
  Output Intervals = 1
!  Post File = "reynolds_cylplate.ep"
End


Constants
  Gravity(4) = 0 -1 0 9.82
  Stefan Boltzmann = 5.67e-8
End


Body 1
  Name = "Body1"
  Equation = 1
  Material = 1
End


Equation 1
  Name = "Equation1"
  Active Solvers(1) = 1 
End


Solver 1
  Equation = "Reynolds"

  Procedure = File "ReynoldsSolver" "ReynoldsSolver"
  Variable = FilmPressure
  Variable DOFS = 1

  Linear System Solver = Iterative
  Linear System Iterative Method = BiCGStab
  Linear System Max Iterations = 500
  Linear System Convergence Tolerance = 1.0e-8
  Linear System Preconditioning = ILU0
  Linear System Residual Output = 10
  Steady State Convergence Tolerance = 1.0e-5

  Nonlinear System Convergence Tolerance = 1.0e-5
  Nonlinear System Max Iterations = 30
  Nonlinear System Newton After Iterations = 3
  Nonlinear System Newton After Tolerance = 1.0e-2
  Nonlinear System Relaxation Factor = 1.0

End



Solver 2
  Equation = "SaveMaterial"
  Procedure = File "SaveData" "SaveMaterials"
  Parameter 1 = String "Gap Height"
  Parameter 2 = String "Surface Velocity 1"
End



Material 1
  Name = "Material1"

  Gap Height = Variable Coordinate 1
     Real MATC "0.01+0.005*sin(tx)"

  Surface Velocity 1 = Real 1.0e3
  Density = 1
  Viscosity = 0.01
  Compressibility Model = weakly compressible"
  Bulk Modulus = Real 1.0e4

!  Specific Heat Ratio = Real 1.4
!  Reference Pressure = 1e4
End

Boundary Condition 1
  Name = "bottom"
  Target Boundaries = 1
  FilmPressure = Real 0.0
End

Boundary Condition 2
  Name = "top"
  Target Boundaries = 2
  FilmPressure = Real 0.0
End

Boundary Condition 3
  Name = "left"

  Target Boundaries = 3
  Periodic BC = 4
  Periodic BC FilmPressure = Logical True
End

Boundary Condition 4
  Name = "right"

  Target Boundaries = 4
  Periodic BC = 3
  Periodic BC FilmPressure = Logical True
End

Solver 1 :: Reference Norm = Real 3884.9083
RUN


