! Test different operators of SaveScalars on a simple heat equation 
! For this purpose the SaveScalars includes a tailored output feature

Header
  CHECK KEYWORDS Warn
  Mesh DB "." "angle"
End

Simulation
  Max Output Level = 3
  Coordinate System = "Cartesian 2D"

  Simulation Type = "Steady State"
  Steady State Max Iterations = 1
  Output Intervals = 1

  Solver Input File = "TempDist.sif"
  Post File = "TempDist.ep"
End

Constants
  Gravity(4) = 0 -1 0 9.82
  Stefan Boltzmann = 5.67e-08
End

Body 1
  Name = "Body1"
  Body Force = 1
  Equation = 1
  Material = 1
End


Equation 1
  Name = "Equation1"
  Heat Equation = True
End

Solver 1
  Exec Solver = "Always"
  Equation = "Heat Equation"
  Variable = "Temperature"
  Variable Dofs = 1
  Linear System Solver = "Iterative"
  Linear System Iterative Method = "BiCGStab"
  Linear System Max Iterations = 500
  Linear System Convergence Tolerance = 1.0e-12
  Linear System Abort Not Converged = True
  Linear System Preconditioning = "ILU0"
  Linear System Residual Output = 10
  Steady State Convergence Tolerance = 1.0e-05
  Nonlinear System Convergence Tolerance = 1.0e-05
  Nonlinear System Max Iterations = 1
  Nonlinear System Newton After Iterations = 3
  Nonlinear System Newton After Tolerance = 1.0e-02
  Nonlinear System Relaxation Factor = 1.0
End


Solver 2 
  Equation = SaveScalars
  Procedure = "SaveData" "SaveScalars"
  Filename = f.dat
  Show Norm = True
  Show Norm Index = 1

  Variable 1 = Temperature
  Operator 1 = Volume
End


Material 1
  Name = "Material1"
  Density = 1
  Heat Conductivity = 1.0
End

Body Force 1
  Name = "BodyForce1"
  Heat Source = 1
End

Boundary Condition 1
  Name = "Zero"
  Target Boundaries(1) = 1
  Temperature = 1

  Filename = File f.dat
  Save Scalars = True
End


$fprintf( stderr, "TEST CASE 1\n");
RUN
$fprintf( stderr, "END TEST CASE 1: Target NRM=3.0, EPS=1e-4\n" );

$fprintf( stderr, "TEST CASE 2\n");
Solver 2 :: Operator 1 = Area
RUN
$fprintf( stderr, "END TEST CASE 2: Target NRM=8.0, EPS=1e-4\n" );

$fprintf( stderr, "TEST CASE 3\n");
Solver 2 :: Operator 1 = max
RUN
$fprintf( stderr, "END TEST CASE 3: Target NRM=1.1489581, EPS=1e-4\n" );

$fprintf( stderr, "TEST CASE 4\n");
Solver 2 :: Operator 1 = min
RUN
$fprintf( stderr, "END TEST CASE 4: Target NRM=1.0, EPS=1e-4\n" );

$fprintf( stderr, "TEST CASE 5\n");
Solver 2 :: Operator 1 = int mean
RUN
$fprintf( stderr, "END TEST CASE 5: Target NRM=1.0712569, EPS=1e-4\n" );

$fprintf( stderr, "TEST CASE 6\n");
Solver 2 :: Operator 1 = dofs
RUN
$fprintf( stderr, "END TEST CASE 6: Target NRM=981.0, EPS=1e-4\n" );

$fprintf( stderr, "TEST CASE 7\n");
Solver 2 :: Operator 1 = diffusive flux
RUN
$fprintf( stderr, "END TEST CASE 7: Target NRM=2.9582406, EPS=1e-4\n" );


!End Of File
