! Test different operators of SaveScalars on a simple heat equation 
! This one tests the computation of fluxes in two different ways.
! For this purpose the SaveScalars includes a tailored output feature

Header
  CHECK KEYWORDS Warn
  Mesh DB "." "cube"
End

Simulation
  Max Output Level = 5
  Coordinate System = "Cartesian"

  Simulation Type = "Steady State"
  Steady State Max Iterations = 1
  Output Intervals = 1

!  Post File = "TempDist.ep"
End

Constants
  Gravity(4) = 0 -1 0 9.82
  Stefan Boltzmann = 5.67e-08
End

Body 1
  Name = "Body1"
  Body Force = 1
  Equation = 1
  Material = 1
End

Equation 1
  Name = "Equation1"
  Active Solvers(1) = 1
End

Solver 1
  Exec Solver = "Always"
  Equation = "Heat Equation"
  Variable = "Temperature"
  Variable Dofs = 1
  Linear System Solver = "Iterative"
  Linear System Iterative Method = "BiCGStab"
  Linear System Max Iterations = 500
  Linear System Convergence Tolerance = 1.0e-12
  Linear System Abort Not Converged = True
  Linear System Preconditioning = "ILU0"
  Linear System Residual Output = 10
  Steady State Convergence Tolerance = 1.0e-05
  Nonlinear System Convergence Tolerance = 1.0e-05
  Nonlinear System Max Iterations = 1
  Nonlinear System Newton After Iterations = 3
  Nonlinear System Newton After Tolerance = 1.0e-02
  Nonlinear System Relaxation Factor = 1.0

! Computes the residual of the linear system r=Ax-b where
! A is the stiffness matrix without BCs. This represents the nodal
! heat loads needed to cause the effect of the BCs.  
  Calculate Loads = True
End


Solver 2 
  Equation = SaveScalars
  Procedure = "SaveData" "SaveScalars"
!  Filename = f.dat
  Show Norm = True
  Show Norm Index = 4

  Variable 1 = Temperature
  Coefficient 1 = Heat Conductivity   
  Operator 1 = diffusive flux

  Variable 2 = Temperature Loads
  Operator 2 = boundary sum
End


Material 1
  Name = "Ideal"
  Density = 1
  Heat Conductivity = 5.0
End

Body Force 1
  Name = "Heating"
  Heat Source = 1
End

Boundary Condition 1
  Name = "Zero"
  Target Boundaries(1) = 1 2
  Temperature = 0
  Save Scalars = True
End

Boundary Condition 2
  Name = "Neumann"
  Target Boundaries(1) = 3
End


! The norm is the total flux over Dirichlet BCs which should be equal to -1

Solver 2 :: Reference Norm = Real 1.0
Solver 2 :: Reference Norm Tolerance = Real 1e-4
RUN

!End Of File
