! Simple test case for StructuredMeshMapper
! As the test case "structmap" but with p:2 elements
!
! 30.3.2016 P.R. 

Header
  CHECK KEYWORDS Warn
  Mesh DB "." "box"
  Include Path ""
  Results Directory ""
End

Simulation
  Max Output Level = 5
  Coordinate System = "Cartesian"
  Coordinate Mapping(3) = 1 2 3
  Simulation Type = "Steady State"
  Steady State Max Iterations = 1
  Output Intervals = 1
  Post File = "case.vtu"
End

Constants
  Gravity(4) = 0 -1 0 9.82
  Stefan Boltzmann = 5.67e-08
End

Body 1
  Name = "Body1"
  Body Force = 1
  Equation = 1
  Material = 1
End

Equation 1
  Name = "Equation1"
  Heat Equation = True
End

Solver 1
  Equation = "Heat Equation"
  Variable = "Temperature"
  Variable Dofs = 1
  Linear System Solver = "Iterative"
  Linear System Iterative Method = "BiCGStab"
  Linear System Max Iterations = 500
  Linear System Convergence Tolerance = 1.0e-08
  Linear System Abort Not Converged = True
  Linear System Preconditioning = "ILU0"
  Linear System Residual Output = 1
  Steady State Convergence Tolerance = 1.0e-05
  Stabilize = False  
  Nonlinear System Max Iterations = 1

  Element = p:2
End

Solver 2 
  Exec Solver = before all 
  Equation = "MapCoordinate"
  Procedure = "StructuredMeshMapper" "StructuredMeshMapper"
  Active Coordinate = Integer 2

!  Mapping Mask Variable = String "Temperature"
!  Bottom Surface Level = Real -1.0  
End 

Solver 3
  Exec Solver = after all 
  Equation = "MaxTemp"
  Procedure = "SaveData" "SaveScalars"

  Variable 1 = Temperature 
  Operator 1 = max
  Show Norm Index = 1
End 

Material 1
  Name = "Material1"
  Density = 1
  Heat Conductivity = 1
End

Body Force 1
  Name = "BodyForce1"
  Heat Source = 1
End

Boundary Condition 1
  Name = "bottom"
  Target Boundaries = 1 
  Bottom Surface = Variable "Coordinate 1"
     Real MATC "0.1*cos(5*tx)"
  Temperature = 0
End

Boundary Condition 2
  Name = "right"
  Target Boundaries = 2 
  Temperature = 0
End

Boundary Condition 3
  Name = "top"
  Top Surface = Variable "Coordinate 1"
    Real MATC "1+0.1*sin(5*tx)"
  Target Boundaries = 3 
  Temperature = 0
End

Boundary Condition 4
  Name = "left"
  Target Boundaries = 4 
  Temperature = 0
End

Solver 1 :: Reference Norm = 4.30041981E-02
Solver 3 :: Reference Norm = 1.209432966234E-001
