! An alternate sif file for with_projection.sif. Here the keyword
! "Helmholtz Projection" is used to obtain a simpler sif file.

$ omega_z = 1

Header
  CHECK KEYWORDS Warn
  Mesh DB "." "Mesh"
  Include Path ""
  Results Directory ""
End

Simulation
  Max Output Level = 5
  Coordinate System = "Cartesian 3D"

  Simulation Type = "Steady State"
  Steady State Min Iterations = 1
  Steady State Max Iterations = 1
  Output Intervals = 1
End

Constants
  Gravity(4) = 0 -1 0 9.82
  Stefan Boltzmann = 5.67e-08
End

Body 1
  Name = "Inner Ring"
  Target Bodies(1) = 1
  Equation = 1
  Material = 1
  Body Force = 1
End

Body 2
  Name = "Outer Ring"
  Target Bodies(1) = 2
  Equation = 1
  Material = 1
  Body Force = 2
End

Equation 1
  Active Solvers(3) = 1 2 3
End

Solver 1
  Equation = "MGDynamics"
  Procedure = "MagnetoDynamics" "WhitneyAVSolver"

  Fix Input Current Density = Logical False
  Use Piola Transform = Logical True

  Helmholtz Projection = True
  Nonlinear System Max Iterations = 10
  Nonlinear System Convergence Tolerance = 1e-5
  !
  ! Enforce the weak continuity of a scalar field of 
  ! the Helmholtz projection:
  !
  HelmholtzProjector: Apply Mortar BCs = True
  HelmholtzProjector: Projector Skip Edges = True

  Linear System Solver = "Iterative"
  Linear System Preconditioning = ILU2
  Linear System Row Equilibration = True
  Linear System Residual Output = 20
  Linear System Max Iterations = 3000
  Linear System Iterative Method = GCR
  Linear System GCR Restart = 400
  Linear System Convergence Tolerance = 1e-6
  Linear System Abort Not Converged = False

  Edge Basis = Logical True
  Apply Mortar BCs = Logical True
  Projector Skip Nodes = False
End

Solver 2
!  Exec Solver = never
  Equation = "MGDynamicsCalc"

  Procedure = "MagnetoDynamics" "MagnetoDynamicsCalcFields"
  Linear System Symmetric = True

!  Calculate Current Density = Logical True
!  Calculate Electric Field = Logical True
  Calculate Magnetic Field Strength = Logical False
  Calculate Magnetic Vector Potential = Logical True

  Steady State Convergence Tolerance = 0
  Linear System Solver = "Iterative"
  Linear System Preconditioning = None
  Linear System Residual Output = 0
  Linear System Max Iterations = 5000
  Linear System Iterative Method = CG
  Linear System Convergence Tolerance = 1.0e-8
End

Solver 3
!  Exec Solver = after timestep
  Equation = "result output"
  Procedure = "ResultOutputSolve" "ResultOutputSolver"
  Output File Name = faraday
  Vtu Format = Logical True
  Discontinuous Bodies = true
  Save Geometry IDs = Logical True
End

Material 1
  Name = "Material1"
  Relative Permeability = 1.0 
  Relative Permittivity = 0
  Electric Conductivity = 1e7
End

Body Force 1
  Angular Velocity 3 = Real $ omega_z
End

Body Force 2
  Angular Velocity 3 = Real $ omega_z
End

! The outer face of the inner ring:
!-----------------------------------
Boundary Condition 1
  Target Boundaries(1) = 1

  Mortar BC = Integer 4

  Rotational Projector = Logical True
  Level Projector = Logical True
  Galerkin Projector = Logical True
End

! The inner face of the inner ring:
!-----------------------------------
Boundary Condition 2
  Target Boundaries(1) = 2
  AV {e} 1 = Variable Coordinate 2
    REAL MATC "-0.5*tx"
  AV {e} 2 = Variable Coordinate 1
    REAL MATC "0.5*tx"
  AV {e} 3 = 0.0
End

! The outer face of the outer ring:
!-----------------------------------
Boundary Condition 3
  Target Boundaries(1) = 3
  AV {e} 1 = Variable Coordinate 2
    REAL MATC "-0.5*tx"
  AV {e} 2 = Variable Coordinate 1
    REAL MATC "0.5*tx"
  AV {e} 3 = 0.0
End

! The inner face of the outer ring:
!-----------------------------------
Boundary Condition 4
  Target Boundaries(1) = 4
End

!
! Fix potential at one node on the inner face
! (this seems to make linear solver convergence harder):
!-------------------------------------------------------
!Boundary Condition 5
!  Target Nodes(1) = 5
!  AV = 0
!End

Solver 1 :: Reference Norm = Real 4.39413963E-02
Solver 1 :: Reference Norm Tolerance = Real 1e-4

