! Test case for the vectorized Heat solver
!
! Including thermal conductance matrix computation using constrained modes.
!
! P.R. 14.8.2024

Check Keywords Warn

Header
  Mesh DB "." "plates"
End

Simulation
  Max Output Level = 5
  Coordinate System = Cartesian
  Simulation Type = Steady State
  Steady State Max Iterations = 1

  vtu: Eigen Analysis = Logical True
  Post File = "case.vtu"
End

Constants
End

Body 1
  Equation = 1
  Material = 1
End

Equation 1
  Active Solvers(1) = 1 
End

Solver 1
  Equation = HeatEq
  Variable = Temperature

! Both legacy and vectorized solver are ok:
  Procedure = "HeatSolveVec" "HeatSolver"
!  Procedure = "HeatSolve" "HeatSolver"

  Calculate Conductance Matrix = Logical True

! The above makes all these keywords obsolete:
!  Constraint Modes Analysis = Logical True
!  Constraint Modes Lumped = Logical True
!  Constraint Modes Fluxes = Logical True
!  Constraint Modes Matrix Symmetric = Logical True
!  Constraint Modes Matrix Filename = File "ConductivityMatrix.dat"
  Constraint Modes Matrix Norm = Logical True


  Linear System Solver = Iterative
  Linear System Iterative Method = idrs
  Linear System Max Iterations = 200
  Linear System Convergence Tolerance = 1.0e-8
  Linear System Residual Output = 10
  Linear System Preconditioning = ILU1

  Nonlinear System Max Iterations = 1
End

! This solver is just to provide the Nrm for the test
Solver 2
  Equation = SaveScalars
  Procedure = "SaveData" "SaveScalars"

  Show Norm Name = String "res: temperature lumped matrix norm" 
  Filename = f.dat
End 


Material 1
  Heat Conductivity = 1.0
  Density = 1.0
End

Boundary Condition 1
  Target Boundaries = 1
  Conductivity Body = Integer 0  ! the ground
End

Boundary Condition 2
  Target Boundaries = 2
  Conductivity Body = Integer 1
End

Boundary Condition 3
  Target Boundaries = 3
  Conductivity Body = Integer 2
End

Boundary Condition 4
  Target Boundaries = 4
  Conductivity Body = Integer 3
End

Boundary Condition 5
  Target Boundaries = 5
  Conductivity Body = Integer 4 
End

Boundary Condition 6
  Target Boundaries = 6
  Conductivity Body = Integer 5
End

Solver 1 :: Reference Norm = 0.27012653
Solver 2 :: Reference Norm = 5.08829854E+01

!End Of File

