! Test case for simple dimensional reduction glued with full dimension model.
! The periodic BCs are (mis)used here for boundaries that have been flattened
! to (x,y) plane. 

Header
  CHECK KEYWORDS Warn
  Mesh DB "." "mesh"
  Include Path ""
  Results Directory ""
End
  
Simulation
  Max Output Level = 5
  Coordinate System = Cartesian
  Coordinate Mapping(3) = 1 2 3
  Simulation Type = Steady State
  Steady State Max Iterations = 1
  Output Intervals = 1
  
  Output Intervals = 0
  Simulation Timing = Logical True
End 

Constants
  Gravity(4) = 0 -1 0 9.82
  Stefan Boltzmann = 5.67e-08
  Permittivity of Vacuum = 8.8542e-12
  Boltzmann Constant = 1.3807e-23
  Unit Charge = 1.602e-19
End

Body 1
  Target Bodies(1) = 1
  Name = "Body"
  Equation = 1
  Material = 1
  Body Force = 1
End


Solver 1
  Equation = Heat Equation
  Procedure = "HeatSolve" "HeatSolver"
  Variable = Temperature
  Exec Solver = Always
  Stabilize = True
  Bubbles = False
  Lumped Mass Matrix = False
  Optimize Bandwidth = True
  Steady State Convergence Tolerance = 1.0e-5
  Nonlinear System Convergence Tolerance = 1.0e-7
  Nonlinear System Max Iterations = 1
  Nonlinear System Newton After Iterations = 3
  Nonlinear System Newton After Tolerance = 1.0e-3

  Nonlinear System Relaxation Factor = 1.0  
  Linear System Solver = Iterative
  Linear System Iterative Method = BiCGStabl
  Linear System Max Iterations = 5000
  Linear System Convergence Tolerance = 1.0e-8
  Linear System Preconditioning = ILU0
  Linear System ILUT Tolerance = 1.0e-3
  Linear System Abort Not Converged = False
  Linear System Residual Output = 20
  Linear System Precondition Recompute = 1
 
  Optimize Bandwidth = False
End

Solver 2
! Settings mainly for timing and verification
  Exec Solver = never

  Equation = SaveScalars
  Procedure = "SaveData" "SaveScalars"

  Filename = scalars.dat

  Variable 1 = Temperature
  Operator 1 = dofs
  Operator 2 = partitions
  Operator 3 = min
  Operator 4 = max
  Operator 5 = norm
  Operator 6 = cpu time
  Operator 7 = wall time

!  File Append = Logical True

! Reduce just to one file when parallel
  Parallel Reduce = Logical True
  Default Parallel Operator = String max
  Parallel Operator 1 = String sum
End 

Solver 3
!  Exec Solver = never
  Equation = VtuOutput
  Procedure = "ResultOutputSolve" "ResultOutputSolver"
  Output File Name = case
  Vtu Format = Logical True
  Single Precision = Logical True
End 

Equation 1
  Name = "Heat"
  Active Solvers(1) = 1
End

Material 1
  Name = "Ideal"
  Heat Conductivity = 1
  Heat Capacity = 1
  Density = 1
End

Body Force 1
  Name = "Heating"
  Heat Source = 1.0
End


Boundary Condition 1
  Target Boundaries(1) =  2
  Name = "Cold"
  Temperature = 0
End

Boundary Condition 2
  Target Boundaries(1) =  8
  Name = "Hot"
  Temperature = 1
End

Boundary Condition 3
  Target Boundaries(1) = 6
  Name = "Mortar Master"
  Periodic BC = Integer 4
  Periodic BC Temperature = Logical True

! This keyword flattens the boundary meshes to (x,y) plane
  Flat Projector = Logical True
  Flat Projector Coordinate = Integer 3 
  Flat Projector Reduce Dimension = Logical True

! The dimensional coupling is an exception where the level projector should 
! not be applied. It is by default evoked for the flat projector.
  Level Projector = Logical False
End

Boundary Condition 4
  Target Boundaries(1) = 4
  Name = "Mortar Target"  
End

Solver 1 :: Reference Norm = Real 1.3524494
RUN
