Check Keywords Warn

Header
  Mesh DB "." "radiation"
End

Constants
  Stefan Boltzmann = 5.67e-8
End

Simulation
  Max Output Level = 5
  Coordinate System = Cartesian 3D
  Simulation Type = Steady State
  Steady State Max Iterations = 1
  Output Intervals = 1
! Output File = "radiation.result"
! Post File = "radiation.ep"
  View Factors ="ViewFactors.dat"
End

Body 1
  Equation = 1
  Material = 2
  Initial Condition = 1
End

Body 2
  Equation = 1
  Material = 1
  Body Force = 1
  Initial Condition = 1
End

Initial Condition 1
  Temperature = 250.0
End

Body Force 1
  Heat Source = 10000
End

Material 1
   Density = 1.0
   Heat Capacity = 1.0
   Heat Conductivity = 10.0
End

Material 2
   Density = 1.0
   Heat Capacity = 1.0
   Heat Conductivity = 1.0
End

Solver 1
  Equation = Heat Equation
  Stabilize = True
  Linear System Solver = Iterative
  Linear System Direct Method = UMFPack
  Linear System Iterative Method = BiCGStab
  Linear System Convergence Tolerance = 1.0e-8
  Linear System Max Iterations = 500
  Linear System Preconditioning = ILU
  Nonlinear System Newton After Iterations = 1
  Nonlinear System Newton After Tolerance = 0.1
  Nonlinear System Max Iterations = 50
  Steady State Convergence Tolerance = 1.0e-5
  NonLinear System Convergence Tolerance = 1.0e-5
  Nonlinear System Relaxation Factor = 1.0

  Viewfactor raytrace tolerance   = real 0.001
  Viewfactor area tolerance   = real 0.01
  Viewfactor factor tolerance = real 0.001
End

Equation 1
  Active Solvers = 1
End

Boundary Condition 1
   Target Boundaries = 1
   Temperature = 100
End

Boundary Condition 2
   Target Boundaries = 2

   Heat Flux BC = True
   Radiation = Diffuse Gray
   Emissivity = 0.6
   Radiation Target Body = -1
End

Solver 1 :: Reference Norm = Real 180.435264497
Solver 1 :: Reference Norm Tolerance = Real 1.0e-3
RUN
