Check Keywords Warn

Header
  Mesh DB "." "Step2"
End

Simulation
  Max Output Level = 5
  Coordinate System = Cartesian 2D
  Simulation Type = Transient
  Timestepping Method = BDF
  BDF Order = 2
  Timestep Sizes = 0.25
  Timestep Intervals = 6
  Output Intervals = 1
  Steady State Max Iterations = 2
! Output File = "ad4.result"
! Post File = "ad4.ep"
End

Body 1
  Equation = 1
  Material = 1
End

Body 2
  Equation = 2
  Material = 2
End

Equation 1
  Active Solvers = 2

  Concentration Units = String Mass To Max Solubility
  Convection = Constant
End

Equation 2
  Active Solvers(2) = 1 2

  Concentration Units = String Mass To Max Solubility
  Convection = Computed
End

Solver 2
  Equation = Advection Diffusion
  Variable = Poison
  Variable DOFs = 1
  Procedure = "AdvectionDiffusion" "AdvectionDiffusionSolver"
  Linear System Solver = Iterative
  Linear System Iterative Method = BiCGStab
  Linear System Max Iterations = 200
  Linear System Convergence Tolerance = 1.0e-08
  Linear System Preconditioning = ILU1
  Linear System ILUT Tolerance = 1.0e-03
  Nonlinear System Max Iterations = 1
  Nonlinear System Convergence Tolerance = 1.0e-4
  Nonlinear System Newton After Tolerance = 1.0e-3
  Nonlinear System Newton After Iterations = 10
  Nonlinear System Relaxation Factor = 1
  Steady State Convergence Tolerance = 1.0e-4
!  Stabilize = False  ! tis is default
!  Bubbles = True   ! is default also
End

Solver 1
  Equation = "Navier-Stokes"

  Linear System Solver = Iterative
  Linear System Iterative Method = BiCGStab
  Linear System Max Iterations = 500

  Linear System Convergence Tolerance = 1.0e-8
  Linear System Preconditioning = ILU0
  Linear System Residual Output = 1
  Steady State Convergence Tolerance = 1.0e-5
  Stabilize = True

  Nonlinear System Convergence Tolerance = 1.0e-5
  Nonlinear System Max Iterations = 2
  Nonlinear System Newton After Iterations = 3
  Nonlinear System Newton After Tolerance = 1.0e-2
  Nonlinear System Relaxation Factor = 1.0
End

Material 1
  Density = 1.3
  Poison Diffusivity = Real 1.0e-2
  Poison Maximum Solubility = Real 1.0e-2

  Convection Velocity 1 = -0.75
  Convection Velocity 2 = 0.0
  Convection Velocity 3 = 0.0
End

Material 2
  Density = 1000
  Poison Diffusivity = Real 5.0e-3
  Poison Maximum Solubility = Real 5.0e-4

  Viscosity = 2e-5
End

Boundary Condition 1
  Target Boundaries = 1
  Poison = Real 0.0
End

Boundary Condition 2
  Target Boundaries = 5

  Poison = Real 1.0

  Velocity 1 = 0.0
  Velocity 2 = 0.4
End

Boundary Condition 3
  Target Boundaries = 7

  Velocity 1 = 0
  Velocity 2 = 0
End

Boundary Condition 4
  Target Boundaries = 4

  Poison Solubility Change Boundary = Logical True
  Normal Target Body = 1

  Velocity 1 = 0.0
  Velocity 2 = 0.0
End

Solver 2 :: Reference Norm = Real 0.5653912689
RUN

!End Of File

