! Test case for creating 0D BCs at the intersection of two 1D BCs. 
! P.R. 6.4.2022

Header
  CHECK KEYWORDS Warn
  Mesh DB "." "angle"
  Include Path ""
  Results Directory ""
End

Simulation
  Max Output Level = 25
  Coordinate System = "Cartesian 2D"
  Simulation Type = "Steady State"
  Steady State Max Iterations = 1
  Output Intervals = 0
!  Post File = "case.vtu"
!  Ascii Output = True
End

Body 1
  Name = "Body"
  Target Bodies(2) = 1 2
  Equation = 1
  Material = 1
End

Equation 1
  Name = "Equations"
  Active Solvers(1) = 1 
End

Solver 1
  Equation = "Heat Equation"
  Variable = "Temperature"
  Linear System Solver = "Iterative"
  Linear System Iterative Method = "BiCGStab"
  Linear System Max Iterations = 500
  Linear System Convergence Tolerance = 1.0e-08
  Linear System Abort Not Converged = True
  Linear System Preconditioning = "ILU0"
  Linear System Residual Output = 10
  Nonlinear System Max Iterations = 1
End

Material 1
  Name = "Material"
  Density = 1
  Heat Conductivity = 3
End

Boundary Condition 1
  Name = "one-south"
  Target Boundaries(1) = 1 
End

Boundary Condition 2
  Name = "one-east"
  Target Boundaries(1) = 2 
  Temperature = 0
End

Boundary Condition 3
  Name = "one-north"
  Target Boundaries(1) = 3
End

Boundary Condition 4
  Name = "interface"
  Target Boundaries(1) = 4 
End

Boundary Condition 5
  Name = "two-south"
  Target Boundaries(1) = 5
End

Boundary Condition 6
  Name = "two-west"
  Target Boundaries(1) = 6
End

Boundary Condition 7
  Name = "two-north"
  target Boundaries(1) = 7
End

Boundary Condition 8
  Name = "Lower"
  Intersection BC(2) = Integer 1 5
  Temperature = 1
End

Boundary Condition 9
  Name = "Upper"
  Intersection BC(2) = Integer 3 7
  Temperature = -1
End

Boundary Condition 10
  Name = "Upper"
  Intersection BC(2) = Integer 1 2
  Temperature = -1  
End

Solver 1 :: Reference Norm = 2.61968411E-01
!End Of File
