$ bndry_layer = 0.05

Header
  Mesh DB "." "Step"
End


Simulation
  Max Output Level = 5
  Coordinate System = Cartesian 2D

  Simulation Type = Steady

  Steady State Max Iterations  = 200
  Output Intervals = 1

! Output File = "Step_small.result"
!  Post File = "Step_small.ep"
End


Body 1
  Name  = "Flow"
  Equation  = 1
  Material  = 1
  Initial Condition = 1
End


Body 2
  Name  = "Flow1"
  Equation = 1
  Material = 1
  Initial Condition = 1
End


Initial Condition 1
  Velocity 1 = 0
  Velocity 2 = 0

  Kinetic Energy = 0.003
  Kinetic Dissipation = 0.001
End

solver 1
  Procedure = "DistanceSolve" "DistanceSolver1"
  Variable = "Wall Distance"
  Equation = Distance
  Exec Solver = Before all
end

Solver 2
  Equation = Navier-Stokes

  Stabilization Method = String Stabilized

  Linear System Solver = Iterative
  Linear System Max Iterations = 1000
  Linear System Iterative Method = BiCGStabL
  Linear System Preconditioning = ILU1
  Linear System Convergence Tolerance = 1.0e-7

  Nonlinear System Max Iterations = 1
  Nonlinear System Convergence Tolerance = 1.0e-5
  Nonlinear System Newton After Iterations = 10
  Nonlinear System Newton After Tolerance  = 1.0e-2
  Nonlinear System Relaxation Factor = 0.5

  Steady State Convergence Tolerance = 1.0e-5
End


Solver 3
  Equation = SST K-Omega

  Procedure = "SSTKomega" "SSTKomega"
  Variable = "ko[Kinetic Energy:1 Kinetic Dissipation:1]"
 
  Linear System Solver = Iterative
  Linear System Max Iterations = 1000
  Linear System Iterative Method = BiCGStabL
  Linear System Preconditioning = ILU1
  Linear System Convergence Tolerance = 1.0e-7

  Nonlinear System Max Iterations = 5
  Nonlinear System Convergence Tolerance = 1.0e-3
  Nonlinear System Newton After Iterations = 20
  Nonlinear System Newton After Tolerance = 1.0e-3
  Nonlinear System Relaxation Factor = Real 0.75

  Steady State Relaxation Factor = Real 0.75
  Steady State Convergence Tolerance = 1.0e-5
End

Equation 1 :: Active Solvers(3) = 1 2 3


Material 1
  Viscosity = $1/43000.0
  Density = 1
  Viscosity Model = sst k-omega
End
 

Boundary Condition 1
  Name
    String "Inflow"

  Target Boundaries = 1


$v = 0.0000000000000000\
   2.0637355075263568\
   5.1728817125590956\
   9.7596543613232427\
   16.084192161786614\
   23.713538851892032\
   31.686864080033445\
   38.971277123942706\
   45.164617972182263\
   50.295385028127725\
   54.383072792444835\
   57.446481197159862\
   58.545327606335661

$w=   0.0000000000000000\
  2.18650980000012539E-004\
  5.50981027000019708E-004\
  1.05609314999999260E-003\
  1.82381866300002017E-003\
  2.99069317799999061E-003\
  4.76423868699992880E-003\
  7.45987016200000234E-003\
  1.15569903170000283E-002\
  1.77842486479999722E-002\
  2.72491276009999908E-002\
  4.16349020220000351E-002\
  6.35000000000000425E-002
$n=size(w)[1]

  Velocity 2 = 0
  Velocity 1 = Variable Wall Distance
  Real
    $ for(i=0:n-1) { (2*w(i)/max(w)) (v(i)/max(v)) }
  End

  Kinetic Energy = 0.003
  Kinetic Dissipation = 1
End


Boundary Condition 2
  Target Boundaries(3) = 2 4 5
  Name = "Walls x"

  Wall Law = True
  Velocity 2 = 0
  Wall Distance = real $bndry_layer
  Boundary Layer Thickness =  $bndry_layer
End

Boundary Condition 3
  Target Boundaries(1) = 3
  Name =  "Walls y"

  Wall Law = True
  Velocity 1 = 0
  Wall Distance = real $bndry_layer
  Boundary Layer Thickness = $bndry_layer
End


Solver 3 :: Reference Norm = Real 1.503297
Solver 3 :: Reference Norm Tolerance = Real 1.0e-3
RUN
