!------------------------------------------------------------------------------
! Perform an interpolation test to verify that the expected convergence rate is
! maintained when non-homogeneous BCs are specified for edge finite elements. 
! The solver employed seeks the best approximation with respect to norm that 
! can be adjusted (L2 or energy).
!
! L2 errors for quadratic edge elements with linear/quadratic triangles as 
! background mesh:
!
! h          Without BCs       With non-homegebous BCs
! 
! L/2        0.39560106E-02    0.42231395E-02   
! L/4        0.79484883E-03    0.82132729E-03
! L/8        0.18731238E-03    0.19004767E-03
!
! The convergence rate is seen to be O(h^2) in both cases.
!------------------------------------------------------------------------------

Check Keywords "Warn"

Header
  Mesh DB "." "square"
End

Simulation
  Max Output Level = 5
  Coordinate System = "Cartesian 2D"
  Simulation Type = Steady
  Output Intervals(1) = 1
  Steady State Max Iterations = 1
End

Body 1
  Equation = 1
  Material = 1
End

!----------------------------------------------------------
! Parameter for defining the energy inner product: 
!----------------------------------------------------------
Material 1
  Material Param = Real 0.0e-5
End

Equation 1
  Active Solvers(1) = 1
End

Solver 1
  Equation = "Interpolation test"
  Variable = "P"
  Variable DOFs = 1
  Procedure = "EdgeFEInterpolationTest" "BestApproximationSolver"
  Optimal Family = Logical True
  Quadratic Approximation = Logical True
  Second Kind Basis = Logical False

  Compute Curl Error = Logical False
  Test Mode = Integer 5

  ! Element definition for quadratic edge elements in 2D:
  !-----------------------------------------------------
  Element = "n:0 e:2 -tri b:2 -quad b:4"

  Optimize Bandwidth = False
  Bubbles in Global System = Logical True
  Linear System Solver = Iterative
  Linear System Iterative Method = bicgstab2
  Linear System Preconditioning = none
!  Linear System Row Equilibration = Logical True
  Linear System Max Iterations = 1000
  Linear System Convergence Tolerance = 1e-11
End

Boundary Condition 1
  Target Boundaries(1) = 3  
  P {e} 1 = Variable Coordinate
    Real MATC "-tx(0)*tx(1)*tx(1)"
  P {e} 2 = Real 0.0 
End

!Boundary Condition 1
!  Target Boundaries(1) = 2  
!  P {e} 1 = Real 0.0 
!  P {e} 2 = Variable Coordinate
!    Real MATC "tx(0)*tx(0)*tx(1)"
!End

Solver 1 :: Reference Norm = Real 0.51707410
Solver 1 :: Reference Norm Tolerance = Real 1.0E-6