! A simple 3D (extruded 2D) steady-state structured mesh mapping example 
! If an extruded structure may be recovered this is the fastest way to
! perform mapping.
! Test case authors: Peter Råback/Juha Ruokolainen
! Test case created: 26.11.2011/17.10.2012

Header
  CHECK KEYWORDS Warn
  Mesh DB "." "square"
  Include Path ""
  Results Directory ""
End

Simulation
  Max Output Level = 5

  Extruded Mesh Levels=10

  Coordinate System = "Cartesian"
  Coordinate Mapping(3) = 1 2 3
  Simulation Type = "Steady State"
  Steady State Max Iterations = 1
  Output Intervals = 0
  Post File = "case.ep"
End

Constants
  Gravity(4) = 0 -1 0 9.82
  Stefan Boltzmann = 5.67e-08
End

Body 1
  Name = "Body1"
  Body Force = 1
  Equation = 1
  Material = 1
End

Equation 1
  Name = "Equation1"
  Heat Equation = True
End

Solver 1
  Equation = "Heat Equation"
  Variable = "Temperature"
  Variable Dofs = 1
  Linear System Solver = "Iterative"
  Linear System Iterative Method = "BiCGStabl"
  BiCgStabl Polynomial Degree = 4
  Linear System Max Iterations = 500
  Linear System Convergence Tolerance = 1.0e-08
  Linear System Abort Not Converged = True
  Linear System Preconditioning = "none"
  Linear System Residual Output = 1
  Steady State Convergence Tolerance = 1.0e-05
  Nonlinear System Convergence Tolerance = 1.0e-05
  Nonlinear System Max Iterations = 1
  Nonlinear System Newton After Iterations = 3
  Nonlinear System Newton After Tolerance = 1.0e-02
  Nonlinear System Relaxation Factor = 1.0
End

Solver 2 
  Exec Solver = before all 
  Equation = "MapCoordinate"
  Procedure = "StructuredMeshMapper" "StructuredMeshMapper"
  Active Coordinate = Integer 3
End 

Material 1
  Name = "Material1"
  Density = 1
  Heat Conductivity = 1
End

Body Force 1
  Name = "BodyForce1"
  Heat Source = 1
End

Boundary Condition 1
  Name = "Adibatic sides"
  Target Boundaries(2) = 1 3 
End

Boundary Condition 2
  Name = "Cold sides"
  Target Boundaries(2) = 2 4
  Temperature = 0.0
End

Boundary Condition 3
  Name = "Bottom"
  Target Boundaries = 5
  Bottom Surface = Variable "Coordinate"
     Real MATC "0.1*cos(pi*tx(0))*sin(pi*tx(1))"
  Temperature = 0
End

Boundary Condition 4
  Name = "Top"
  Target Boundaries = 6 
  Top Surface = Variable "Coordinate"
    Real MATC "0.5+0.1*sin(2*pi*tx(0))*cos(pi*tx(1))"
  Temperature = 0
End

Solver 1 :: Reference Norm = Real 0.14717749E-01
RUN

!End Of File
